<?xml version="1.0" encoding="UTF-8"?>
<routes xmlns:xsi="http://www.w3.org/2001/XMLSchema-instance" xsi:noNamespaceSchemaLocation="http://sumo.dlr.de/xsd/routes_file.xsd">
	<vehicle id="carIn3303:1" type="passenger1" depart="0.00" departSpeed="0.00" departPos="random" arrivalSpeed="0.00" arrivalPos="random">
		<route edges="-32426#0 -32426#0-AddedOffRampEdge -32426#1 -32426#2-AddedOnRampEdge -32426#2 -32426#2-AddedOffRampEdge -31052 -32554 -32372#2 -31622#10-AddedOnRampEdge -31622#10 -31622#10-AddedOffRampEdge -32932 --32306#1 --32306#0 --31496#3 --31496#2 --31496#1 --31496#0"/>
	</vehicle>
	<vehicle id="carIn49902:1" type="passenger2a" depart="0.00" departSpeed="0.00" departPos="random" arrivalSpeed="0.00" arrivalPos="random">
		<route edges="-30470#0 -30470#1 -30470#2 -30436#5 --31818#0 --31430 --30260 --31938 --30528#44 --30528#43 --30528#42 --30528#41 --30528#40 --30528#39 --30528#38 --30528#37 --30528#36 --30528#35 --30528#34 --30528#33 --30528#32 --30496#5"/>
	</vehicle>
	<vehicle id="carIn891:1" type="passenger3" depart="0.00" departSpeed="0.00" departPos="random" arrivalSpeed="0.00" arrivalPos="random">
		<route edges="-31622#0 -31622#0-AddedOffRampEdge -31694 -32770#5 -32770#6 -32278#0 -32278#1 -32278#2 -32278#3 -32278#4 -32278#5 -32278#6 --30620 -31504#0 -31504#1 -31504#2 -30962#0 -30962#1 -30962#2 --30892 -30892#0 -30892#1 -30892#2 -30892#3 -30892#4 -30892#5 --32750#9 --32750#8 --32750#7 --32750#6 --32750#5 --32750#4 --32750#3 --32750#2 --32750#1 --32750#0 --31496#14 --31496#13 --31496#12 --31496#11 --31496#10 --31496#9 --31496#8 --31496#7 --31496#6 --31496#5 --31496#4 --31496#3 --31466#3 --31466#2 --31466#1 --31466#0 -30888#1 -32308#0 -32308#1"/>
	</vehicle>
	<vehicle id="h36061c1:1" type="passenger3" depart="0.00" departSpeed="0.00" departPos="random" arrivalSpeed="0.00" arrivalPos="random">
		<route edges="-30266 -32726#1 -30648#3 -30648#4 -30648#5 -30648#6 -30648#7 -30648#8 -30648#9 -30648#10 -30648#11 -30648#12 -30648#13 -30648#14 -30648#15 -31492#0 -31492#1 -30528#0 -30528#1 -30528#2 -30528#3 -30528#4 -30528#5 -30528#6 -30528#7 -30528#8 -30528#9 -30528#10 -30528#11 -30528#12 -30528#13 -30528#14 -30528#15 -30528#16 -30528#17 -30528#18 -30528#19 -30528#20 -30528#21 -30528#22 -30528#23 -30528#24 -30528#25 -30528#26 -30528#27 -30528#28 -30528#29 -30528#30 -30528#31 -30528#32 -30528#33 -30528#34 -30528#35 -30528#36 -30528#37 -30528#38 -30528#39 -30528#40 -30528#41 -30528#42 --31794#7 --31794#6 --31794#5 --31794#4 -31884#0 -31884#1 -31884#2 -31884#3 -31884#4 -31034#0 -31034#1 -31034#2 -31034#3 -31034#4 --32756#2"/>
	</vehicle>
	<vehicle id="h65148c1:1" type="passenger5" depart="0.00" departSpeed="0.00" departPos="random" arrivalSpeed="0.00" arrivalPos="random">
		<route edges="-31132#2 -32200#0 --30860#10 --30860#9 --30860#8 --30860#7 --30860#6 --30860#5 --30860#4 --30860#3 --30860#2 --30860#1 --32796 --32072#1 -30988#0 -31584 -30988#3"/>
	</vehicle>
	<vehicle id="h6936c1:1" type="passenger2a" depart="0.00" departSpeed="0.00" departPos="random" arrivalSpeed="0.00" arrivalPos="random">
		<route edges="--30766#5 --30766#4 --32974#1 -32278#6 --30620 --31068#1 --31068#0 -30528#2 -30528#3 -30528#4 -30528#5 -30528#6 -30528#7 -30528#8 -30528#9 -30528#10 -30528#11 -30528#12 -30528#13 -32850 -31890 -32132 --30456 --31788 -32468#3 -32468#4 -32468#5 -32468#6 -32468#7 -32382#0 --31818#23 --31818#22 --31818#21 --31818#20 --31818#19 --31818#18 --31818#17 --31818#16 --31818#15 --31818#14 --31818#13 --31818#12 --31818#11 --31818#10 --31818#9 --31818#8 --31818#7 --31818#6 --31818#5 --31818#4 --31818#3 --32912#1 --32912#0 --30436#3 --30436#2 --30436#1 -31636#3"/>
	</vehicle>
	<vehicle id="carIn10804:1" type="passenger2a" depart="1.00" departSpeed="0.00" departPos="random" arrivalSpeed="0.00" arrivalPos="random">
		<route edges="-32426#0 -32426#0-AddedOffRampEdge -32426#1 -32426#2-AddedOnRampEdge -32426#2 -32426#2-AddedOffRampEdge -32454#0 -32454#1-AddedOnRampEdge -32454#1 -32454#1-AddedOffRampEdge -32454#2 -32706 --31272#8 --31272#7 --31272#6 --31272#5 -31320#3 -31320#4 -31230#0 -31230#1 -31230#2 -32628 -31272#3"/>
	</vehicle>
	<vehicle id="h49870c1:1" type="passenger3" depart="1.00" departSpeed="0.00" departPos="random" arrivalSpeed="0.00" arrivalPos="random">
		<route edges="-31198 -30776#1 -31620 -32262 --31860#0 -31578#3 -31578#4 --31896 -30772#2 --32306#4 --32306#3 --32306#2 --32306#1 --32306#0 -31496#4 -31496#5 -31496#6 -31496#7 -31496#8 -31496#9 -31496#10 -31496#11 -31496#12 -31496#13 -31496#14 -32750#0 -32750#1 -32750#2 -32750#3 -32750#4 -32750#5 -32750#6 -32750#7 -32750#8 -32750#9 -32750#10 -32750#11 -32750#12 --30528#4 --30528#3 --30528#2 --30528#1 --30528#0 --31492#1 --31492#0 --30648#15 --30648#14 --30648#13 -32552#0 -32552#1 -32552#2 -32552#3 -32552#4 -32552#5 -32552#6"/>
	</vehicle>
	<vehicle id="h66387c1:1" type="passenger2b" depart="1.00" departSpeed="0.00" departPos="random" arrivalSpeed="0.00" arrivalPos="random">
		<route edges="-32364#0 -32740#0 -32740#1 -32740#2 -32740#3 --32230#1 --32230#0 --32224#1 --32224#0 --30654 --32074 -30648#9 -30648#10 -30648#11 -30648#12 -30648#13 -30648#14 -30648#15 -31492#0 -31492#1 -30528#0 -30528#1 -30528#2 -30528#3 -30528#4 -30528#5 -30528#6 -32924#5 -32924#6 -32924#7 -32924#8 -30892#10 -30892#11 -30892#12 -30892#13 -30892#14 -30892#15 -30892#16 -30892#17 -30892#18 -30892#19 -30892#20 -30892#21 -30892#22 -30892#23 -30892#24 -30892#25 -30892#26 -31680#3 -31680#4 -31680#1 -32532 -32848"/>
	</vehicle>
	<vehicle id="h67364c1:1" type="passenger1" depart="1.00" departSpeed="0.00" departPos="random" arrivalSpeed="0.00" arrivalPos="random">
		<route edges="-32432#7 --32434 -32060 -32432#9 -32432#10 -32432#11 -32432#12 -32432#13 -32432#14 --32964#1 --32964#0 -31818#21 -30694#0 -30694#1 -32820#0 -32820#1 --30528#24 --30528#23 --30528#22 --30528#21 -31272#0 --30950"/>
	</vehicle>
	<vehicle id="carIn13223:1" type="passenger2a" depart="2.00" departSpeed="0.00" departPos="random" arrivalSpeed="0.00" arrivalPos="random">
		<route edges="-30762#0 -30762#1 --31452#0 -32952#1 --31462#3 --31462#2 --31462#1 --31462#0 -31680#1 -31680#2 --30892#26 --30892#25 --30892#24 --30892#23 --30892#22 --30892#21 --30892#20 --30892#19 --30892#18 --30892#17 --30892#16 --32270#3 --32270#2 --31602#1 -31564#2 -30948"/>
	</vehicle>
	<vehicle id="carIn24793:1" type="passenger2b" depart="3.00" departSpeed="0.00" departPos="random" arrivalSpeed="0.00" arrivalPos="random">
		<route edges="-30706#0 -30706#0-AddedOffRampEdge -30706#1 -30706#2-AddedOnRampEdge -30706#2 -30706#3-AddedOnRampEdge -30706#4 -32798-AddedOnRampEdge -32798 -31876#1 -30496#0 -30496#1 -30496#2 -30496#3 -30496#4 -30496#5 --30528#31 --30528#30 --30528#29 --30528#28 --30528#27 --30528#26 --30528#25 --30528#24 --30528#23 --30528#22 --30528#21 --30528#20 --30528#19 --30528#18 --30528#17 --30528#16 -32410#0 -32410#1 -32410#2 -32410#3 -31994 --31492#1 --31492#0 --30648#15 --30648#14 --30648#13 --30648#12 --30648#11 --30648#10 --30648#9 --30648#8 --30648#7 --30648#6 --30648#5 --30648#4 --30648#3 -32550#0 -30480 -30840#1"/>
	</vehicle>
	<vehicle id="h20508c1:1" type="passenger1" depart="3.00" departSpeed="0.00" departPos="random" arrivalSpeed="0.00" arrivalPos="random">
		<route edges="--31818#1 --30436#5 --30436#4 -32912#0 -32912#1 -31818#3 -31818#4 -31818#5 -31818#6 -31818#7 -31818#8 -31818#9 -31818#10 -31818#11 -31818#12 -31818#13 -31818#14 -31818#15 -31818#16 -31818#17 -31818#18 --31716 --31766 -32432#13 -32432#14 -32432#15 -32382#2 --32468#7 --32468#6 --32468#5 --32468#4 --32468#3 --32468#2 --32468#1 --32178 -30608#9 -30608#10 -32410#3 -31994 --31492#1 --31492#0 --30648#15 --30648#14 --30648#13 --30648#12 --30648#11 --30648#10 --30648#9 -32194 -30654 -32224#0 -32224#1 -32230#0 -32230#1 -32230#2 --30270#1 --30270#0"/>
	</vehicle>
	<vehicle id="h43818c1:1" type="passenger5" depart="3.00" departSpeed="0.00" departPos="random" arrivalSpeed="0.00" arrivalPos="random">
		<route edges="-30786 --32634#5 --32634#4 --32634#3 --32634#2 --32634#1 --32634#0 --30694#6 --30694#5 -30310#0 -30310#1 -30310#2 -30310#3 --30528#25 --30528#24 --30528#23 --30528#22 --30528#21"/>
	</vehicle>
	<vehicle id="carIn11623:1" type="passenger1" depart="4.00" departSpeed="0.00" departPos="random" arrivalSpeed="0.00" arrivalPos="random">
		<route edges="-31114 -32836#0 -32836#1 --30916#2 --30916#1 --30916#0 -31952#12 -31952#13 -31952#14 -31952#15 -31952#16 -31952#17 -31952#18 --30256#0 --31834#2 --31834#1 --31834#0 --30528#3 --30528#2 --30528#1 --30528#0 -31492#2 --32674#9 --32674#8 --32674#7 --32674#6 --32674#5 --32674#4 --32674#3 --32674#2 --32674#1 --32674#0 -30856#19 -32862#1 --32970"/>
	</vehicle>
	<vehicle id="carIn25472:1" type="passenger4" depart="4.00" departSpeed="0.00" departPos="random" arrivalSpeed="0.00" arrivalPos="random">
		<route edges="--30964 -32764#5 -31628 -30856#15 -31134#0 -31134#1 -32674#2 -32674#3 -32674#4"/>
	</vehicle>
	<vehicle id="carIn39436:1" type="passenger2a" depart="4.00" departSpeed="0.00" departPos="random" arrivalSpeed="0.00" arrivalPos="random">
		<route edges="--30542#1 --30872#11 --31272#7 --30892#16 --30892#15 --30892#14 --30892#13 --30892#12 --30892#11 --30892#10 --32924#8 --32924#7 --32924#6 --32924#5 --30528#6 --30528#5 --30528#4 --30528#3 --30528#2 -31068#0 -31068#1 -32574 -30632#0 -30632#1 -30860#0 -30860#1 -30860#2 -30860#3 -30860#4 -30860#5 -30860#6 -30860#7 -30860#8 -30860#9 -31952#9 -31952#10 -31952#11"/>
	</vehicle>
	<vehicle id="carIn4626:1" type="passenger1" depart="4.00" departSpeed="0.00" departPos="random" arrivalSpeed="0.00" arrivalPos="random">
		<route edges="--32552#6 --32552#5 --32552#4 --32552#3 --32552#2 --32552#1 --32552#0 -30648#13 -30648#14 -30648#15 -31492#0 -31492#1 -30528#0 -30528#1 -30528#2 -30528#3 -30528#4 -30528#5 -30528#6 -30528#7 -30528#8 -30528#9 -30528#10 -30528#11 -30528#12 -30528#13 -30528#14 -30528#15 -32410#0"/>
	</vehicle>
	<vehicle id="h23880c1:1" type="passenger1" depart="4.00" departSpeed="0.00" departPos="random" arrivalSpeed="0.00" arrivalPos="random">
		<route edges="--32034#1 -30250 -31320#2 --31272#4 --31272#3 --31272#2 --31272#1 --31272#0 -30528#21 -30528#22 -30528#23 -30528#24 -30528#25 -30528#26 -30528#27 -30528#28 -30528#29 -30528#30 -30528#31 -30528#32 -30528#33 -30528#34 -30528#35 -30528#36 -30528#37 -30528#38 -30528#39 -30528#40 -30528#41 -30528#42 --31794#7 --31794#6 --31794#5 --31794#4 -31884#0 -31884#1 -31884#2 -31884#3 -31884#4 -31034#0 -31034#1 -31034#2 -31034#3 -32910"/>
	</vehicle>
	<vehicle id="h31616c2:1" type="passenger3" depart="4.00" departSpeed="0.00" departPos="random" arrivalSpeed="0.00" arrivalPos="random">
		<route edges="-32172#8 --30354 -31966#11 -31966#12 -31966#13 --32184 --30892#19 --30892#18 --30892#17 --31272#6 --31272#5 -31320#3 -31320#4 -31230#0 -31230#1 -31230#2 -31230#3 -31230#4 -31230#5 -32410#0 -32410#1 -32410#2 --30608#10 --30608#9 --30608#8 --30608#7 --30608#6 -32280#3 -31154 -32530#1 -30856#2 -30856#3 -30856#4 --30532 --30884#2 -31526#0 -32384"/>
	</vehicle>
	<vehicle id="h34799c1:1" type="passenger2b" depart="4.00" departSpeed="0.00" departPos="random" arrivalSpeed="0.00" arrivalPos="random">
		<route edges="--32910 --31034#3 --31034#2 --31034#1 --31034#0 --31884#4 --31884#3 --31884#2 --31884#1 --31884#0 -31794#4 -31794#5 -31794#6 -31794#7 --30528#42 --30528#41 --30528#40 --30528#39 --30528#38 --30528#37 --30528#36 --30528#35 --30528#34 --30528#33 --30528#32 --30528#31 --30528#30 --30528#29 --30528#28 --30528#27 --30528#26 --30528#25 --30528#24 --30528#23 --30528#22 --30528#21 --30528#20 --30528#19 --30528#18 --30528#17 --30528#16 -32410#0 -32410#1 -32410#2 --30608#10 --30608#9 --30608#8 --30608#7 --30608#6 --30608#5 --30608#4 --30608#3 --30608#2 --30608#1"/>
	</vehicle>
	<vehicle id="h59371c1:1" type="passenger1" depart="4.00" departSpeed="0.00" departPos="random" arrivalSpeed="0.00" arrivalPos="random">
		<route edges="-31872#0 -31872#1 -31818#23 -32382#1 -32382#2 --32468#7 --32468#6 --32468#5 --32468#4 --32468#3 --32468#2 --32468#1 --32178 -30608#9 -30608#10 -30568 -31232 -31030 -31380#0 -31380#1 -31380#2 --30528#7 --30528#6 --30528#5 --30528#4 -31834#0 -31834#1 -31834#2 -30256#0 --31812 -30582#0 -30582#1 --31152#1 --31152#0"/>
	</vehicle>
	<vehicle id="carIn12307:1" type="passenger1" depart="5.00" departSpeed="0.00" departPos="random" arrivalSpeed="0.00" arrivalPos="random">
		<route edges="--30528#57 --30528#56 --30528#55 --30528#54 --30528#53 --30528#52 --30528#51 --30528#50 --30528#49 --30528#48 --30528#47 --30528#46 --30528#45 --30528#44 --30528#43 --30528#42 --30528#41 --30528#40 --30528#39 --30528#38 --30528#37 --30528#36 --30528#35 --30528#34 --30528#33 --30528#32 --30528#31 --30528#30 --30528#29 --30528#28 --30528#27 --30528#26 --30528#25 --30528#24 --30528#23 --30528#22 --30528#21 -31272#0 -31272#1 -31272#2 -31272#3 -31272#4 -31272#5 -31272#6 --30892#16 --30892#15 --30892#14 -31804"/>
	</vehicle>
	<vehicle id="carIn19041:1" type="passenger1" depart="5.00" departSpeed="0.00" departPos="random" arrivalSpeed="0.00" arrivalPos="random">
		<route edges="-32426#0 -32426#0-AddedOffRampEdge -32426#1 -32426#2-AddedOnRampEdge -32426#2 -32426#2-AddedOffRampEdge -31052 -32554 -32372#2 -31622#10-AddedOnRampEdge -31622#10 -31622#10-AddedOffRampEdge -32932 -32306#2 -32306#3 -32306#4 -30772#3 -30772#1 -31896 -31578#5 -31578#1 -31578#2 -31684 -31860#1 -31860#2 -31004#1 -31004#2 --30616#4 --30616#3 --32250#1 --32250#0 -30358#2"/>
	</vehicle>
	<vehicle id="carIn39586:1" type="passenger2a" depart="5.00" departSpeed="0.00" departPos="random" arrivalSpeed="0.00" arrivalPos="random">
		<route edges="-32970 -32862#2 --30856#19 -32674#0 -32674#1 -32674#2 -32674#3 -32674#4 -32674#5 -32674#6 -32674#7 -32674#8 -32674#9 --31492#2 -30528#0 -30528#1 -31068#0 -31068#1 -32574 -30338 --32652#9 --32652#8 -31144#0 -31144#1 --30646#2 --30646#1"/>
	</vehicle>
	<vehicle id="carIn42837:1" type="passenger1" depart="5.00" departSpeed="0.00" departPos="random" arrivalSpeed="0.00" arrivalPos="random">
		<route edges="--30542#1 --30542#0 -32788#3 -32064#0 -32064#1 -32064#2 -32784#3 -32784#1 -31118#0 -31118#1 -31118#2 -32664#0 -32664#1 -32664#2 --31496#5 --31496#4 --31496#3 --31466#3 --31466#2 --31466#1 --31466#0 -30888#1 -30888#2 -30404#0 --31436#2 --31436#1 --30672#5 -32722#0 -32222#0 -32222#1 -32222#2 --30672#0 -31326#1 --30404#4"/>
	</vehicle>
	<vehicle id="h37189c1:1" type="passenger2a" depart="5.00" departSpeed="0.00" departPos="random" arrivalSpeed="0.00" arrivalPos="random">
		<route edges="-30348#2 --32618#5 --32618#4 --32618#3 --32618#2 --30552 -30950 --31272#0 -30528#21 -30528#22 -30528#23 -31846#0 -31846#1 -31846#2 -31846#3 --30694#0 --31818#21 --31818#20 --31818#19 --31818#18 --31818#17 --31818#16 --31818#15 --31818#14 --31818#13 --31818#12 --31818#11 --31818#10 --31818#9 --31818#8 --31818#7 --31818#6 --31818#5 --31818#4 --31818#3 --31818#2 --31818#1 --30436#5 --30470#2 --30976#1 --30976#0"/>
	</vehicle>
	<vehicle id="h65089c1:1" type="passenger2b" depart="5.00" departSpeed="0.00" departPos="random" arrivalSpeed="0.00" arrivalPos="random">
		<route edges="-32256 -31962#4 -32750#0 -32750#1 -32750#2 -32750#3 --32924#14 --32924#13 --32924#12 --32924#11 --32924#10 --32924#9 -30892#10 -30892#11 -30892#12 -30892#13 -30892#14 -30892#15 -30892#16 --31272#6 --31272#5 --31272#4 --31272#3 --31272#2 --31272#1 --31272#0 -30528#21 -30528#22 -30528#23 -30528#24 -30528#25 -30528#26 -30528#27 -30528#28 -30528#29 -30528#30 -30528#31 -30528#32 -30528#33 -30528#34 -30528#35 -30528#36 -30528#37 -30528#38 -30528#39 -30528#40 -30528#41 -30528#42 -30528#43 -30528#44 -30528#45 -30528#46 -30528#47 -30528#48 -30528#49 -30528#50 -30528#51 -30528#52 -30528#53 -30528#54 --32122#1 --32122#0 --32792#1 --32792#0"/>
	</vehicle>
	<vehicle id="carIn13971:1" type="passenger1" depart="6.00" departSpeed="0.00" departPos="random" arrivalSpeed="0.00" arrivalPos="random">
		<route edges="-31564#0 -30842#0 -32270#3 -30892#16 --31272#6 --31272#5 --31272#4 --31272#3 --31272#2 --31272#1 --31272#0 -30528#21 -30528#22 -30528#23 -30528#24 -30528#25 -30528#26 -30528#27 -30528#28 -30528#29 -30528#30 -30528#31 -30528#32 -30528#33 -30528#34 -30528#35 -30528#36 -30528#37 -30528#38 -30528#39 -30528#40 -30528#41 -30528#42 -30528#43 -30528#44 -30528#45 -30528#46 -30528#47 -30528#48 -30528#49 -30528#50 -30528#51 -30528#52 -30528#53 -30528#54 -30528#55 -30528#56 -30528#57"/>
	</vehicle>
	<vehicle id="carIn23003:1" type="passenger2b" depart="6.00" departSpeed="0.00" departPos="random" arrivalSpeed="0.00" arrivalPos="random">
		<route edges="-31622#0 -31622#0-AddedOffRampEdge -31694 -32770#5 -32770#6 -32278#0 -32278#1 -32278#2 -32278#3 -32278#4 -32278#5 -32278#6 --30620 -31504#0 -31504#1 -31504#2 -30962#0 -30962#1 -30962#2 -30256#0 -30256#1 -30256#2 -30256#3 -31940#0 -31940#1 -31940#2 -31940#3 -31940#4 -31940#5 -31940#6 -32830#2 -32830#3 -32830#4 --31372 -30924#2 -30924#3 -30924#4 -31768#0 -31768#1 -31768#2 -31768#3 --32878#3 --32878#2 --32878#1 --32878#0 -31004#2 -31004#3 --32308#2 --32308#1 --30942#2"/>
	</vehicle>
	<vehicle id="carIn43144:1" type="passenger3" depart="6.00" departSpeed="0.00" departPos="random" arrivalSpeed="0.00" arrivalPos="random">
		<route edges="--30542#1 --30872#11 --31272#7 --31272#6 --31272#5 -31320#3 -31320#4 -31230#0 -31230#1 -31230#2 -31230#3 -31230#4 -31230#5 -32410#0 -31890 -32132 --30456 --31788 -32468#3 -32468#4 -32468#5 -32468#6 -32468#7 -32382#0"/>
	</vehicle>
	<vehicle id="carIn8928:1" type="passenger1" depart="6.00" departSpeed="0.00" departPos="random" arrivalSpeed="0.00" arrivalPos="random">
		<route edges="-32112 -31132#1 -31132#2 -32200#0 --30860#10 --30860#9 --30860#8 --30860#7 --30860#6 --30860#5 --30860#4 --30860#3 --30860#2 --30860#1 --30860#0 --30632#1 --30632#0 -30338 -31780 -30620"/>
	</vehicle>
	<vehicle id="h29438c2:1" type="passenger2b" depart="6.00" departSpeed="0.00" departPos="random" arrivalSpeed="0.00" arrivalPos="random">
		<route edges="--32482#0 --30358#12 --30404#5 --30404#4 --30404#3 --30404#2 --30404#1 --30404#0 -30888#3 -30888#0 -30888#1 -32308#0 -32308#1 -32308#2 -31004#0 --31860#2 --31860#1 --31860#0 -31578#3 -31578#4 -31578#5 --30624"/>
	</vehicle>
	<vehicle id="h41398c1:1" type="passenger1" depart="6.00" departSpeed="0.00" departPos="random" arrivalSpeed="0.00" arrivalPos="random">
		<route edges="-30640#2 -30348#1 --30968#3 --30346#0 -30892#25 -30892#26 -31680#3 -31680#4 -31680#1 -32532 -32848 -31078#1 -31260 -30324 -31110 -30612 -30994#1 -31502 -31712#1 -31794#0 -31794#1 -31794#2 --31728#2 --31728#1 --31728#0 -30914#1 -30914#2 -31884#1 -31884#2 -31884#3 -31884#4 -31034#0 -31034#1 -31034#2 -31034#3 -31034#4 -32170#0 -32170#1"/>
	</vehicle>
	<vehicle id="h43032c1:1" type="passenger4" depart="6.00" departSpeed="0.00" departPos="random" arrivalSpeed="0.00" arrivalPos="random">
		<route edges="-30760 -30328#3 -30436#2 -30436#3 -32912#0 -32912#1 -31818#3 -31818#4 -31818#5 -31818#6 -31818#7 -31818#8 -31818#9 -31818#10 -31818#11 -31818#12 -31818#13 -31818#14 -31818#15 -31818#16 -31818#17 -31818#18 --31716 --31766 -32432#13 -32432#14 -32432#15 -32382#2 --32468#7 --32468#6 --32468#5 --32468#4 --32468#3 --32468#2 --32468#1 --32468#0 --30608#7 --30608#6 -32280#3 -31154 -32530#1 --30856#1 --30856#0 --32674#6 --32674#5 --32674#4"/>
	</vehicle>
	<vehicle id="h13827c1:1" type="passenger2b" depart="7.00" departSpeed="0.00" departPos="random" arrivalSpeed="0.00" arrivalPos="random">
		<route edges="--31298#2 --30504#0 -31818#14 -31818#15 -31818#16 -31818#17 -31818#18 --31716 --31766 -32432#13 -32432#14 -32432#15 -32382#2 --32468#7 --32468#6 --32468#5 --32468#4 --32468#3 --32468#2 --32468#1 --32178 -30608#9 -30608#10 -30568 -31232 -31030 -31380#0 -31380#1 -31380#2 --30528#7 --30528#6 --30528#5 --30528#4 --30528#3 --30528#2 -31068#0 -31068#1 -30620 --32278#6 --32278#5 --32278#4 -30738 -31778#3 -31778#4 -31708#0 -31708#1 -32674#4"/>
	</vehicle>
	<vehicle id="h27434c1:1" type="passenger2a" depart="7.00" departSpeed="0.00" departPos="random" arrivalSpeed="0.00" arrivalPos="random">
		<route edges="-31676#1 -31676#2 -31496#1 -31496#2 -31496#3 -31496#4 -31496#5 -31496#6 -31496#7 -31496#8 -31496#9 -31496#10 -31496#11 -31496#12 -31496#13 -31496#14 -32750#0 -32750#1 -32750#2 -32750#3 --32924#14 --32924#13 --32924#12 --32924#11 --32924#10 --32924#9 -30892#10 -30892#11 -30892#12 -30892#13 -30892#14 -30892#15 -30892#16 --31272#6 --31272#5 --31272#4 --31272#3 --31272#2 --31272#1 --31272#0 -30528#21 -30528#22 -30528#23 -30528#24 -30528#25 -30528#26 -30528#27 -30528#28 -30528#29 -30528#30 -30528#31 -30528#32 -30528#33 -30528#34 -30528#35 -30528#36 -30528#37 -30528#38 -30528#39 -30528#40 -30528#41 -30528#42 --31794#7 --31794#6 --31794#5 --31794#4 -31884#0 -31884#1 -31884#2 -31884#3 -31884#4 -31034#0 -31034#1 -31034#2 -31034#3 -32910 -32792#1"/>
	</vehicle>
	<vehicle id="carIn47078:1" type="passenger2a" depart="8.00" departSpeed="0.00" departPos="random" arrivalSpeed="0.00" arrivalPos="random">
		<route edges="-31622#0 -31622#0-AddedOffRampEdge -31694 -32770#5 -32770#6 -32278#0 -32278#1 -32278#2 -32278#3 -32278#4 -32278#5 -32278#6 --30620 -31504#0 -31504#1 -31504#2 -30962#0 -30962#1 -30962#2 -30256#0 --31952#18 --31952#17 --31952#16 --31952#15 --31952#14 --31952#13 --31952#12 -30916#0 -30916#1 -30916#2"/>
	</vehicle>
	<vehicle id="carIn7106:1" type="passenger3" depart="8.00" departSpeed="0.00" departPos="random" arrivalSpeed="0.00" arrivalPos="random">
		<route edges="--30528#57 --30528#56 --30528#55 --30528#54 --30528#53 --30528#52 --30528#51 --30528#50 --30528#49 --30528#48 --30528#47 --30528#46 --30528#45 --30528#44 --30528#43 --31794#7 --31794#6 --31794#5 --31794#4 --31794#3 --31794#2 --31794#1 --31794#0"/>
	</vehicle>
	<vehicle id="h66122c1:1" type="passenger2b" depart="8.00" departSpeed="0.00" departPos="random" arrivalSpeed="0.00" arrivalPos="random">
		<route edges="-32340#2 -32940#0 -32940#1 -32278#1 -32278#2 -32278#3 -30738 -31778#3 -31778#4 -31708#0 -31708#1 --32674#3 --32674#2 --32674#1 --32674#0 --30856#18"/>
	</vehicle>
	<vehicle id="h72165c1:1" type="passenger1" depart="8.00" departSpeed="0.00" departPos="random" arrivalSpeed="0.00" arrivalPos="random">
		<route edges="-32766 -31162#2 -31162#3 -31496#0 -31496#1 -31496#2 -31496#3 -31496#4 -31496#5 -31496#6 -31496#7 -31496#8 -31496#9 -31496#10 -31496#11 -31496#12 -31496#13 -31496#14 -32750#0 -32750#1 -32750#2 -32750#3 --32924#14 --32924#13 --32924#12 --32924#11 --32924#10 --32924#9 -30892#10 -30892#11 -30892#12 -30892#13 -30892#14 -30892#15 -30892#16 --31272#6 --31272#5 --31272#4 --31272#3 --31272#2 --31272#1 --31272#0 -30528#21 -30528#22 -30528#23 -30528#24 -30528#25 -30528#26 -30528#27 -30528#28 -30528#29 -30528#30 -30528#31 -30528#32 -30528#33 -30528#34 -30528#35 -30528#36 -30528#37 -30528#38 -30528#39 -30528#40 -30528#41 -30528#42 --31794#7 --31794#6 --31794#5 --31794#4 -31884#0 -31884#1 -31884#2 -31884#3 -31884#4 -31034#0 -31034#1 -31034#2 -31034#3 -31034#4 -32170#0 -32170#1"/>
	</vehicle>
	<vehicle id="h56351c1:1" type="passenger1" depart="9.00" departSpeed="0.00" departPos="random" arrivalSpeed="0.00" arrivalPos="random">
		<route edges="-31674 -32504#4 -32504#5 -31966#7 -31966#8 -31966#9 -31966#10 -31966#11 -31966#12 -31966#13 --32184 --30892#19 --30892#18 --30892#17 --31272#6 --31272#5 --31272#4 --31272#3 --31272#2 --31272#1 --31272#0 -30528#21 -30528#22 -30528#23 -30528#24 -30528#25 -30528#26 -30528#27 -30528#28 -30528#29 -30528#30 -30528#31 -30528#32 -30528#33 -30528#34 -30528#35 -30528#36 -30528#37 -30528#38 -30528#39 -30528#40 -30528#41 -30528#42 -30528#43 -30528#44 -30528#45 -30528#46 -30528#47 -30528#48 -30528#49 -30528#50 -30528#51 --30278 -31540#1 -31500#1 --30528#55 --30528#54"/>
	</vehicle>
	<vehicle id="h67066c2:1" type="passenger1" depart="9.00" departSpeed="0.00" departPos="random" arrivalSpeed="0.00" arrivalPos="random">
		<route edges="-32406#4 --30256#2 --30256#1 --30256#0 --31834#2 --31834#1 --31834#0 --30528#3 --30528#2 --30528#1 --30528#0 --31492#1 --31492#0 --30648#15 --31364#13"/>
	</vehicle>
	<vehicle id="carIn15898:1" type="passenger2b" depart="10.00" departSpeed="0.00" departPos="random" arrivalSpeed="0.00" arrivalPos="random">
		<route edges="-32426#0 -32426#0-AddedOffRampEdge -32426#1 -32426#2-AddedOnRampEdge -32426#2 -32426#2-AddedOffRampEdge -32454#0 -32454#1-AddedOnRampEdge -32454#1 -32454#1-AddedOffRampEdge -32454#2 -32706 --31272#8 --31272#7 --30892#16 --30892#15 --30892#14 --30892#13 --30892#12 --30892#11 --30892#10 --32924#8 --32924#7 --32924#6 --32924#5 --30528#6 --30528#5 --30528#4 --30528#3 --30528#2 --30528#1 --30528#0 -31492#2 --32674#9 --32674#8 --32674#7 --32674#6 --32674#5"/>
	</vehicle>
	<vehicle id="carIn23232:1" type="passenger2a" depart="10.00" departSpeed="0.00" departPos="random" arrivalSpeed="0.00" arrivalPos="random">
		<route edges="--31568 -32422#2 -30590#0 -30590#1 -30590#2 -30590#3 -30590#4 -30590#5 -30590#6 -30590#7 -30590#8 -32952#0 -32952#1 --31462#3 --31462#2 --31462#1 --31462#0 -31680#1 -31680#2 --30892#26 --30892#25 -30346#0 -30968#3 -30348#2 --32618#5 --32618#4 -32794#0 -32438 -31066#7"/>
	</vehicle>
	<vehicle id="carIn43344:1" type="passenger1" depart="10.00" departSpeed="0.00" departPos="random" arrivalSpeed="0.00" arrivalPos="random">
		<route edges="-30648#0 -30648#1 -30648#2 -30648#3 -30648#4 -30648#5 -30648#6 -30648#7 -30648#8 -30648#9 -30648#10 -30648#11 -30648#12 -30648#13 -30648#14 -30648#15 -31492#0 -31492#1 -30528#0 -30528#1 -30528#2 -30528#3 -30528#4 -30528#5 -30528#6 -30528#7 -30528#8 -30528#9 -30528#10 -30528#11 -30528#12 -30528#13 -30528#14 -30528#15 -30528#16 -30528#17 -30528#18 -30528#19 -30528#20 -31272#0 --30950"/>
	</vehicle>
	<vehicle id="h31520c2:1" type="passenger4" depart="10.00" departSpeed="0.00" departPos="random" arrivalSpeed="0.00" arrivalPos="random">
		<route edges="--32650#2 --31194 --32172#3 --32172#2 --32172#1 --32172#0 -31966#13 --32184 --30892#19 --30892#18 --30892#17 --30892#16 --30892#15 --30892#14 --30892#13 --30892#12 --30892#11 --30892#10 --32924#8 --32924#7 --32924#6 --32924#5 --30528#6 --30528#5 --30528#4 --30528#3 --30528#2 --30528#1 --30528#0 -31492#2 --32674#9 --32674#8 --32674#7"/>
	</vehicle>
	<vehicle id="carIn11529:1" type="passenger1" depart="11.00" departSpeed="0.00" departPos="random" arrivalSpeed="0.00" arrivalPos="random">
		<route edges="-31622#0 -31622#0-AddedOffRampEdge -31694 -32770#5 -32770#6 -32278#0 -32278#1 -32278#2 -32278#3 -32278#4 -32278#5 -32974#1 -30766#4 --30810#1 --30810#0"/>
	</vehicle>
	<vehicle id="carIn46109:1" type="passenger1" depart="11.00" departSpeed="0.00" departPos="random" arrivalSpeed="0.00" arrivalPos="random">
		<route edges="--30542#1 --30872#11 --31272#7 --30892#16 --30892#15 --30892#14 --30892#13 --30892#12 --30892#11 --30892#10 --30892#9 --30892#8 --30892#7 --30892#6 --30892#5 --30892#4 --30892#3 --30892#2 --30892#1 --30892#0 -30892 -30256#0 -30256#1 -30256#2 -30256#3 -31940#0 -31940#1 -31940#2 -31940#3 -31940#4 -31940#5 -31940#6 -32830#2 -32830#3 -32830#4 --31372 -30924#2 -30924#3 -30924#4 -31768#0 -31768#1 -31768#2 -31768#3 -32878#4 -32878#5 -32878#6"/>
	</vehicle>
	<vehicle id="carIn47129:1" type="passenger1" depart="11.00" departSpeed="0.00" departPos="random" arrivalSpeed="0.00" arrivalPos="random">
		<route edges="--30314#1 -30358#0 -30358#1 -30358#2 -30358#3 -30358#4 -30358#5 -30358#6 -30358#7 -30358#8 -30358#9 -31326#0 -30672#0 -30672#1 -32234#0"/>
	</vehicle>
	<vehicle id="carIn47728:1" type="passenger1" depart="11.00" departSpeed="0.00" departPos="random" arrivalSpeed="0.00" arrivalPos="random">
		<route edges="-32766 -31162#2 -31162#3 -31496#0 -31496#1 -31496#2 -31496#3 -31496#4 -31496#5 -31496#6 -31496#7 -31496#8 -31496#9 -31496#10 -31496#11 -31496#12 -31496#13 -31496#14 -32750#0 -32750#1 -32750#2 -32750#3 -32750#4 -32750#5 -32750#6 -32750#7 -32750#8 -32750#9 -32750#10 -32750#11 -32750#12 -30528#5 -30528#6 -30528#7 -30528#8 -30528#9 -30528#10 -30528#11 -30528#12 -30528#13 -32850 -31890 -32132 --30456 --31788 -32468#3 -32468#4 -32468#5 -32468#6 -32468#7 -32382#0 --31818#23 --31818#22 --31818#21 --31818#20 --31818#19 --31818#18 --31818#17 --31818#16 --31818#15 --31818#14 --31818#13 --31818#12 --31818#11 --31818#10 --31818#9 --31818#8 --31818#7 --31818#6 --31818#5 --31818#4 --31818#3 --32912#1 --32912#0 --30436#3 --30436#2 --30436#1 --31636#2"/>
	</vehicle>
	<vehicle id="carIn9292:1" type="passenger2b" depart="11.00" departSpeed="0.00" departPos="random" arrivalSpeed="0.00" arrivalPos="random">
		<route edges="-31114 -32836#0 --31786 -30342#1 --32056 -31226#4 -31226#1 -31316 -30668#2-AddedOnRampEdge -30668#2 -30668#2-AddedOffRampEdge -30668#3 -30668#4-AddedOnRampEdge -30668#4 -30668#4-AddedOffRampEdge -30668#5 -30668#6-AddedOnRampEdge -30668#6 -30668#6-AddedOffRampEdge -30440 -31366#0-AddedOnRampEdge -31366#0 -31366#1-AddedOnRampEdge -31366#1 -31366#1-AddedOffRampEdge -32678 -32566 --30590#3 --30590#2 --30590#1 --30590#0 -32422#1 -31568"/>
	</vehicle>
	<vehicle id="carIn1946:1" type="passenger1" depart="12.00" departSpeed="0.00" departPos="random" arrivalSpeed="0.00" arrivalPos="random">
		<route edges="-30668#0 -30668#0-AddedOffRampEdge -30668#1 -30668#2-AddedOnRampEdge -30668#2 -30668#2-AddedOffRampEdge -31614 -30924#4 -30924#1 -31372 -32830#1 --31940#6 --31940#5 --31940#4 --31940#3 --31940#2 --31940#1 --31940#0 --30256#3 --30256#2 --30256#1 --30256#0 --31834#2 --31834#1 --31834#0 -30528#4 -30528#5 -30528#6 -30528#7 -30528#8 -30528#9 -30528#10 -30528#11 -30528#12 -30528#13 -32850 -31890 -32132 --30456 --31788 -32468#3 -32468#4 -32468#5 -32468#6 -32468#7 -32382#0 --31818#23 --31818#22 --31818#21 --31818#20 --31818#19 --31818#18"/>
	</vehicle>
	<vehicle id="carIn20449:1" type="passenger2a" depart="12.00" departSpeed="0.00" departPos="random" arrivalSpeed="0.00" arrivalPos="random">