<?xml version="1.0" encoding="UTF-8"?>
<routes xmlns:xsi="http://www.w3.org/2001/XMLSchema-instance" xsi:noNamespaceSchemaLocation="http://sumo.dlr.de/xsd/routes_file.xsd">
	<vehicle id="8BEtoLU.0" type="passenger2a" depart="0.00" departSpeed="13.89">
		<route edges="-30668#0 -30668#0-AddedOffRampEdge -30668#1 -30668#2-AddedOnRampEdge -30668#2 -30668#2-AddedOffRampEdge -30668#3 -30668#4-AddedOnRampEdge -30668#4 -30668#4-AddedOffRampEdge -30668#5 -30668#6-AddedOnRampEdge -30668#6 -30668#6-AddedOffRampEdge -30668#7 -30668#7-AddedOffRampEdge -30668#8 -30668#9-AddedOnRampEdge -30668#9 -30668#9-AddedOffRampEdge -31432 -32400#5-AddedOnRampEdge -32400#5"/>
	</vehicle>
	<vehicle id="8LUtoDE.0" type="passenger4" depart="0.00" departSpeed="13.89">
		<route edges="-30706#0 -30706#0-AddedOffRampEdge -31268#0 -31268#1 -31268#2 -30668#12-AddedOnRampEdge -30668#12 -30668#12-AddedOffRampEdge -30668#13 -30668#14-AddedOnRampEdge -30668#14 -30668#14-AddedOffRampEdge -30668#15 -30668#16-AddedOnRampEdge -30668#16"/>
	</vehicle>
	<vehicle id="8FRtoDE.0" type="passenger2b" depart="2.00" departSpeed="13.89">
		<route edges="-32426#0 -32426#0-AddedOffRampEdge -32426#1 -32426#2-AddedOnRampEdge -32426#2 -32426#2-AddedOffRampEdge -31052 -30692 -31156#1 -30668#9-AddedOnRampEdge -30668#9 -30668#9-AddedOffRampEdge -30668#10 -30668#10-AddedOffRampEdge -30668#11 -30668#12-AddedOnRampEdge -30668#12 -30668#12-AddedOffRampEdge -30668#13 -30668#14-AddedOnRampEdge -30668#14 -30668#14-AddedOffRampEdge -30668#15 -30668#16-AddedOnRampEdge -30668#16"/>
	</vehicle>
	<vehicle id="8DEtoBE.0" type="passenger1" depart="3.00" departSpeed="13.89">
		<route edges="-31622#0 -31622#0-AddedOffRampEdge -31622#1 -31622#2-AddedOnRampEdge -31622#2 -31622#2-AddedOffRampEdge -31622#3 -31622#4-AddedOnRampEdge -31622#4 -31622#4-AddedOffRampEdge -31622#5 -31622#5-AddedOffRampEdge -31622#6 -31622#7-AddedOnRampEdge -31622#7 -31622#7-AddedOffRampEdge -31622#8 -31622#8-AddedOffRampEdge -31622#9 -31622#10-AddedOnRampEdge -31622#10 -31622#10-AddedOffRampEdge -31622#11 -31622#12-AddedOnRampEdge -31622#12 -31622#12-AddedOffRampEdge -31622#13 -31622#14-AddedOnRampEdge -31622#14 -31622#14-AddedOffRampEdge -31622#15 -31622#16-AddedOnRampEdge -31622#16"/>
	</vehicle>
	<vehicle id="8FRtoLU.0" type="passenger2b" depart="3.00" departSpeed="13.89">
		<route edges="-32426#0 -32426#0-AddedOffRampEdge -32426#1 -32426#2-AddedOnRampEdge -32426#2 -32426#2-AddedOffRampEdge -31052 -30692 -31156#1 -30668#9-AddedOnRampEdge -30668#9 -30668#9-AddedOffRampEdge -31432 -32400#5-AddedOnRampEdge -32400#5"/>
	</vehicle>
	<vehicle id="8LUtoFR.0" type="passenger1" depart="3.00" departSpeed="13.89">
		<route edges="-30706#0 -30706#0-AddedOffRampEdge -31268#0 -31840#0 -31840#1 -31622#7-AddedOnRampEdge -31622#7 -31622#7-AddedOffRampEdge -31622#8 -31622#8-AddedOffRampEdge -30482 -31366#1-AddedOnRampEdge -31366#1 -31366#1-AddedOffRampEdge -31366#2 -31366#3-AddedOnRampEdge -31366#3"/>
	</vehicle>
	<vehicle id="8BEtoDE.0" type="passenger3" depart="4.00" departSpeed="13.89">
		<route edges="-30668#0 -30668#0-AddedOffRampEdge -30668#1 -30668#2-AddedOnRampEdge -30668#2 -30668#2-AddedOffRampEdge -30668#3 -30668#4-AddedOnRampEdge -30668#4 -30668#4-AddedOffRampEdge -30668#5 -30668#6-AddedOnRampEdge -30668#6 -30668#6-AddedOffRampEdge -30668#7 -30668#7-AddedOffRampEdge -30668#8 -30668#9-AddedOnRampEdge -30668#9 -30668#9-AddedOffRampEdge -30668#10 -30668#10-AddedOffRampEdge -30668#11 -30668#12-AddedOnRampEdge -30668#12 -30668#12-AddedOffRampEdge -30668#13 -30668#14-AddedOnRampEdge -30668#14 -30668#14-AddedOffRampEdge -30668#15 -30668#16-AddedOnRampEdge -30668#16"/>
	</vehicle>
	<vehicle id="8LUtoDE.1" type="passenger3" depart="4.00" departSpeed="13.89">
		<route edges="-30706#0 -30706#0-AddedOffRampEdge -31268#0 -31268#1 -31268#2 -30668#12-AddedOnRampEdge -30668#12 -30668#12-AddedOffRampEdge -30668#13 -30668#14-AddedOnRampEdge -30668#14 -30668#14-AddedOffRampEdge -30668#15 -30668#16-AddedOnRampEdge -30668#16"/>
	</vehicle>
	<vehicle id="8LUtoBE.0" type="passenger1" depart="5.00" departSpeed="13.89">
		<route edges="-30706#0 -30706#0-AddedOffRampEdge -31268#0 -31840#0 -31840#1 -31622#7-AddedOnRampEdge -31622#7 -31622#7-AddedOffRampEdge -31622#8 -31622#8-AddedOffRampEdge -31622#9 -31622#10-AddedOnRampEdge -31622#10 -31622#10-AddedOffRampEdge -31622#11 -31622#12-AddedOnRampEdge -31622#12 -31622#12-AddedOffRampEdge -31622#13 -31622#14-AddedOnRampEdge -31622#14 -31622#14-AddedOffRampEdge -31622#15 -31622#16-AddedOnRampEdge -31622#16"/>
	</vehicle>
	<vehicle id="8DEtoFR.0" type="passenger5" depart="7.00" departSpeed="13.89">
		<route edges="-31622#0 -31622#0-AddedOffRampEdge -31622#1 -31622#2-AddedOnRampEdge -31622#2 -31622#2-AddedOffRampEdge -31622#3 -31622#4-AddedOnRampEdge -31622#4 -31622#4-AddedOffRampEdge -31622#5 -31622#5-AddedOffRampEdge -31622#6 -31622#7-AddedOnRampEdge -31622#7 -31622#7-AddedOffRampEdge -31622#8 -31622#8-AddedOffRampEdge -30482 -31366#1-AddedOnRampEdge -31366#1 -31366#1-AddedOffRampEdge -31366#2 -31366#3-AddedOnRampEdge -31366#3"/>
	</vehicle>
	<vehicle id="8BEtoDE.1" type="passenger2b" depart="9.00" departSpeed="13.89">
		<route edges="-30668#0 -30668#0-AddedOffRampEdge -30668#1 -30668#2-AddedOnRampEdge -30668#2 -30668#2-AddedOffRampEdge -30668#3 -30668#4-AddedOnRampEdge -30668#4 -30668#4-AddedOffRampEdge -30668#5 -30668#6-AddedOnRampEdge -30668#6 -30668#6-AddedOffRampEdge -30668#7 -30668#7-AddedOffRampEdge -30668#8 -30668#9-AddedOnRampEdge -30668#9 -30668#9-AddedOffRampEdge -30668#10 -30668#10-AddedOffRampEdge -30668#11 -30668#12-AddedOnRampEdge -30668#12 -30668#12-AddedOffRampEdge -30668#13 -30668#14-AddedOnRampEdge -30668#14 -30668#14-AddedOffRampEdge -30668#15 -30668#16-AddedOnRampEdge -30668#16"/>
	</vehicle>
	<vehicle id="8FRtoBE.0" type="passenger2a" depart="9.00" departSpeed="13.89">
		<route edges="-32426#0 -32426#0-AddedOffRampEdge -32426#1 -32426#2-AddedOnRampEdge -32426#2 -32426#2-AddedOffRampEdge -31052 -32554 -32372#2 -31622#10-AddedOnRampEdge -31622#10 -31622#10-AddedOffRampEdge -31622#11 -31622#12-AddedOnRampEdge -31622#12 -31622#12-AddedOffRampEdge -31622#13 -31622#14-AddedOnRampEdge -31622#14 -31622#14-AddedOffRampEdge -31622#15 -31622#16-AddedOnRampEdge -31622#16"/>
	</vehicle>
	<vehicle id="8DEtoLU.0" type="passenger1" depart="10.00" departSpeed="13.89">
		<route edges="-31622#0 -31622#0-AddedOffRampEdge -31622#1 -31622#2-AddedOnRampEdge -31622#2 -31622#2-AddedOffRampEdge -31622#3 -31622#4-AddedOnRampEdge -31622#4 -31622#4-AddedOffRampEdge -31828 -32400#4-AddedOnRampEdge -32400#4 -32400#5-AddedOnRampEdge -32400#5"/>
	</vehicle>
	<vehicle id="8DEtoLU.1" type="passenger2a" depart="12.00" departSpeed="13.89">
		<route edges="-31622#0 -31622#0-AddedOffRampEdge -31622#1 -31622#2-AddedOnRampEdge -31622#2 -31622#2-AddedOffRampEdge -31622#3 -31622#4-AddedOnRampEdge -31622#4 -31622#4-AddedOffRampEdge -31828 -32400#4-AddedOnRampEdge -32400#4 -32400#5-AddedOnRampEdge -32400#5"/>
	</vehicle>
	<vehicle id="8BEtoDE.2" type="passenger5" depart="14.00" departSpeed="13.89">
		<route edges="-30668#0 -30668#0-AddedOffRampEdge -30668#1 -30668#2-AddedOnRampEdge -30668#2 -30668#2-AddedOffRampEdge -30668#3 -30668#4-AddedOnRampEdge -30668#4 -30668#4-AddedOffRampEdge -30668#5 -30668#6-AddedOnRampEdge -30668#6 -30668#6-AddedOffRampEdge -30668#7 -30668#7-AddedOffRampEdge -30668#8 -30668#9-AddedOnRampEdge -30668#9 -30668#9-AddedOffRampEdge -30668#10 -30668#10-AddedOffRampEdge -30668#11 -30668#12-AddedOnRampEdge -30668#12 -30668#12-AddedOffRampEdge -30668#13 -30668#14-AddedOnRampEdge -30668#14 -30668#14-AddedOffRampEdge -30668#15 -30668#16-AddedOnRampEdge -30668#16"/>
	</vehicle>
	<vehicle id="8DEtoFR.1" type="passenger1" depart="14.00" departSpeed="13.89">
		<route edges="-31622#0 -31622#0-AddedOffRampEdge -31622#1 -31622#2-AddedOnRampEdge -31622#2 -31622#2-AddedOffRampEdge -31622#3 -31622#4-AddedOnRampEdge -31622#4 -31622#4-AddedOffRampEdge -31622#5 -31622#5-AddedOffRampEdge -31622#6 -31622#7-AddedOnRampEdge -31622#7 -31622#7-AddedOffRampEdge -31622#8 -31622#8-AddedOffRampEdge -30482 -31366#1-AddedOnRampEdge -31366#1 -31366#1-AddedOffRampEdge -31366#2 -31366#3-AddedOnRampEdge -31366#3"/>
	</vehicle>
	<vehicle id="8DEtoLU.2" type="passenger2a" depart="15.00" departSpeed="13.89">
		<route edges="-31622#0 -31622#0-AddedOffRampEdge -31622#1 -31622#2-AddedOnRampEdge -31622#2 -31622#2-AddedOffRampEdge -31622#3 -31622#4-AddedOnRampEdge -31622#4 -31622#4-AddedOffRampEdge -31828 -32400#4-AddedOnRampEdge -32400#4 -32400#5-AddedOnRampEdge -32400#5"/>
	</vehicle>
	<vehicle id="8FRtoBE.1" type="passenger2a" depart="15.00" departSpeed="13.89">
		<route edges="-32426#0 -32426#0-AddedOffRampEdge -32426#1 -32426#2-AddedOnRampEdge -32426#2 -32426#2-AddedOffRampEdge -31052 -32554 -32372#2 -31622#10-AddedOnRampEdge -31622#10 -31622#10-AddedOffRampEdge -31622#11 -31622#12-AddedOnRampEdge -31622#12 -31622#12-AddedOffRampEdge -31622#13 -31622#14-AddedOnRampEdge -31622#14 -31622#14-AddedOffRampEdge -31622#15 -31622#16-AddedOnRampEdge -31622#16"/>
	</vehicle>
	<vehicle id="8LUtoFR.1" type="passenger2b" depart="15.00" departSpeed="13.89">
		<route edges="-30706#0 -30706#0-AddedOffRampEdge -31268#0 -31840#0 -31840#1 -31622#7-AddedOnRampEdge -31622#7 -31622#7-AddedOffRampEdge -31622#8 -31622#8-AddedOffRampEdge -30482 -31366#1-AddedOnRampEdge -31366#1 -31366#1-AddedOffRampEdge -31366#2 -31366#3-AddedOnRampEdge -31366#3"/>
	</vehicle>
	<vehicle id="8LUtoBE.1" type="passenger3" depart="16.00" departSpeed="13.89">
		<route edges="-30706#0 -30706#0-AddedOffRampEdge -31268#0 -31840#0 -31840#1 -31622#7-AddedOnRampEdge -31622#7 -31622#7-AddedOffRampEdge -31622#8 -31622#8-AddedOffRampEdge -31622#9 -31622#10-AddedOnRampEdge -31622#10 -31622#10-AddedOffRampEdge -31622#11 -31622#12-AddedOnRampEdge -31622#12 -31622#12-AddedOffRampEdge -31622#13 -31622#14-AddedOnRampEdge -31622#14 -31622#14-AddedOffRampEdge -31622#15 -31622#16-AddedOnRampEdge -31622#16"/>
	</vehicle>
	<vehicle id="8BEtoDE.3" type="passenger1" depart="18.00" departSpeed="13.89">
		<route edges="-30668#0 -30668#0-AddedOffRampEdge -30668#1 -30668#2-AddedOnRampEdge -30668#2 -30668#2-AddedOffRampEdge -30668#3 -30668#4-AddedOnRampEdge -30668#4 -30668#4-AddedOffRampEdge -30668#5 -30668#6-AddedOnRampEdge -30668#6 -30668#6-AddedOffRampEdge -30668#7 -30668#7-AddedOffRampEdge -30668#8 -30668#9-AddedOnRampEdge -30668#9 -30668#9-AddedOffRampEdge -30668#10 -30668#10-AddedOffRampEdge -30668#11 -30668#12-AddedOnRampEdge -30668#12 -30668#12-AddedOffRampEdge -30668#13 -30668#14-AddedOnRampEdge -30668#14 -30668#14-AddedOffRampEdge -30668#15 -30668#16-AddedOnRampEdge -30668#16"/>
	</vehicle>
	<vehicle id="8DEtoBE.1" type="passenger1" depart="18.00" departSpeed="13.89">
		<route edges="-31622#0 -31622#0-AddedOffRampEdge -31622#1 -31622#2-AddedOnRampEdge -31622#2 -31622#2-AddedOffRampEdge -31622#3 -31622#4-AddedOnRampEdge -31622#4 -31622#4-AddedOffRampEdge -31622#5 -31622#5-AddedOffRampEdge -31622#6 -31622#7-AddedOnRampEdge -31622#7 -31622#7-AddedOffRampEdge -31622#8 -31622#8-AddedOffRampEdge -31622#9 -31622#10-AddedOnRampEdge -31622#10 -31622#10-AddedOffRampEdge -31622#11 -31622#12-AddedOnRampEdge -31622#12 -31622#12-AddedOffRampEdge -31622#13 -31622#14-AddedOnRampEdge -31622#14 -31622#14-AddedOffRampEdge -31622#15 -31622#16-AddedOnRampEdge -31622#16"/>
	</vehicle>
	<vehicle id="8LUtoDE.2" type="passenger2b" depart="19.00" departSpeed="13.89">
		<route edges="-30706#0 -30706#0-AddedOffRampEdge -31268#0 -31268#1 -31268#2 -30668#12-AddedOnRampEdge -30668#12 -30668#12-AddedOffRampEdge -30668#13 -30668#14-AddedOnRampEdge -30668#14 -30668#14-AddedOffRampEdge -30668#15 -30668#16-AddedOnRampEdge -30668#16"/>
	</vehicle>
	<vehicle id="8BEtoDE.4" type="passenger2b" depart="20.00" departSpeed="13.89">
		<route edges="-30668#0 -30668#0-AddedOffRampEdge -30668#1 -30668#2-AddedOnRampEdge -30668#2 -30668#2-AddedOffRampEdge -30668#3 -30668#4-AddedOnRampEdge -30668#4 -30668#4-AddedOffRampEdge -30668#5 -30668#6-AddedOnRampEdge -30668#6 -30668#6-AddedOffRampEdge -30668#7 -30668#7-AddedOffRampEdge -30668#8 -30668#9-AddedOnRampEdge -30668#9 -30668#9-AddedOffRampEdge -30668#10 -30668#10-AddedOffRampEdge -30668#11 -30668#12-AddedOnRampEdge -30668#12 -30668#12-AddedOffRampEdge -30668#13 -30668#14-AddedOnRampEdge -30668#14 -30668#14-AddedOffRampEdge -30668#15 -30668#16-AddedOnRampEdge -30668#16"/>
	</vehicle>
	<vehicle id="8BEtoFR.0" type="passenger1" depart="21.00" departSpeed="13.89">
		<route edges="-30668#0 -30668#0-AddedOffRampEdge -30668#1 -30668#2-AddedOnRampEdge -30668#2 -30668#2-AddedOffRampEdge -30668#3 -30668#4-AddedOnRampEdge -30668#4 -30668#4-AddedOffRampEdge -30668#5 -30668#6-AddedOnRampEdge -30668#6 -30668#6-AddedOffRampEdge -30440 -31366#0-AddedOnRampEdge -31366#0 -31366#1-AddedOnRampEdge -31366#1 -31366#1-AddedOffRampEdge -31366#2 -31366#3-AddedOnRampEdge -31366#3"/>
	</vehicle>
	<vehicle id="8FRtoDE.1" type="passenger2a" depart="21.00" departSpeed="13.89">
		<route edges="-32426#0 -32426#0-AddedOffRampEdge -32426#1 -32426#2-AddedOnRampEdge -32426#2 -32426#2-AddedOffRampEdge -31052 -30692 -31156#1 -30668#9-AddedOnRampEdge -30668#9 -30668#9-AddedOffRampEdge -30668#10 -30668#10-AddedOffRampEdge -30668#11 -30668#12-AddedOnRampEdge -30668#12 -30668#12-AddedOffRampEdge -30668#13 -30668#14-AddedOnRampEdge -30668#14 -30668#14-AddedOffRampEdge -30668#15 -30668#16-AddedOnRampEdge -30668#16"/>
	</vehicle>
	<vehicle id="8BEtoLU.1" type="passenger1" depart="22.00" departSpeed="13.89">
		<route edges="-30668#0 -30668#0-AddedOffRampEdge -30668#1 -30668#2-AddedOnRampEdge -30668#2 -30668#2-AddedOffRampEdge -30668#3 -30668#4-AddedOnRampEdge -30668#4 -30668#4-AddedOffRampEdge -30668#5 -30668#6-AddedOnRampEdge -30668#6 -30668#6-AddedOffRampEdge -30668#7 -30668#7-AddedOffRampEdge -30668#8 -30668#9-AddedOnRampEdge -30668#9 -30668#9-AddedOffRampEdge -31432 -32400#5-AddedOnRampEdge -32400#5"/>
	</vehicle>
	<vehicle id="8FRtoDE.2" type="passenger1" depart="22.00" departSpeed="13.89">
		<route edges="-32426#0 -32426#0-AddedOffRampEdge -32426#1 -32426#2-AddedOnRampEdge -32426#2 -32426#2-AddedOffRampEdge -31052 -30692 -31156#1 -30668#9-AddedOnRampEdge -30668#9 -30668#9-AddedOffRampEdge -30668#10 -30668#10-AddedOffRampEdge -30668#11 -30668#12-AddedOnRampEdge -30668#12 -30668#12-AddedOffRampEdge -30668#13 -30668#14-AddedOnRampEdge -30668#14 -30668#14-AddedOffRampEdge -30668#15 -30668#16-AddedOnRampEdge -30668#16"/>
	</vehicle>
	<vehicle id="8LUtoBE.2" type="passenger2a" depart="23.00" departSpeed="13.89">
		<route edges="-30706#0 -30706#0-AddedOffRampEdge -31268#0 -31840#0 -31840#1 -31622#7-AddedOnRampEdge -31622#7 -31622#7-AddedOffRampEdge -31622#8 -31622#8-AddedOffRampEdge -31622#9 -31622#10-AddedOnRampEdge -31622#10 -31622#10-AddedOffRampEdge -31622#11 -31622#12-AddedOnRampEdge -31622#12 -31622#12-AddedOffRampEdge -31622#13 -31622#14-AddedOnRampEdge -31622#14 -31622#14-AddedOffRampEdge -31622#15 -31622#16-AddedOnRampEdge -31622#16"/>
	</vehicle>
	<vehicle id="8LUtoBE.3" type="passenger2b" depart="24.00" departSpeed="13.89">
		<route edges="-30706#0 -30706#0-AddedOffRampEdge -31268#0 -31840#0 -31840#1 -31622#7-AddedOnRampEdge -31622#7 -31622#7-AddedOffRampEdge -31622#8 -31622#8-AddedOffRampEdge -31622#9 -31622#10-AddedOnRampEdge -31622#10 -31622#10-AddedOffRampEdge -31622#11 -31622#12-AddedOnRampEdge -31622#12 -31622#12-AddedOffRampEdge -31622#13 -31622#14-AddedOnRampEdge -31622#14 -31622#14-AddedOffRampEdge -31622#15 -31622#16-AddedOnRampEdge -31622#16"/>
	</vehicle>
	<vehicle id="8DEtoLU.3" type="passenger2a" depart="25.00" departSpeed="13.89">
		<route edges="-31622#0 -31622#0-AddedOffRampEdge -31622#1 -31622#2-AddedOnRampEdge -31622#2 -31622#2-AddedOffRampEdge -31622#3 -31622#4-AddedOnRampEdge -31622#4 -31622#4-AddedOffRampEdge -31828 -32400#4-AddedOnRampEdge -32400#4 -32400#5-AddedOnRampEdge -32400#5"/>
	</vehicle>
	<vehicle id="8LUtoDE.3" type="passenger4" depart="25.00" departSpeed="13.89">
		<route edges="-30706#0 -30706#0-AddedOffRampEdge -31268#0 -31268#1 -31268#2 -30668#12-AddedOnRampEdge -30668#12 -30668#12-AddedOffRampEdge -30668#13 -30668#14-AddedOnRampEdge -30668#14 -30668#14-AddedOffRampEdge -30668#15 -30668#16-AddedOnRampEdge -30668#16"/>
	</vehicle>
	<vehicle id="8DEtoLU.4" type="passenger2a" depart="26.00" departSpeed="13.89">
		<route edges="-31622#0 -31622#0-AddedOffRampEdge -31622#1 -31622#2-AddedOnRampEdge -31622#2 -31622#2-AddedOffRampEdge -31622#3 -31622#4-AddedOnRampEdge -31622#4 -31622#4-AddedOffRampEdge -31828 -32400#4-AddedOnRampEdge -32400#4 -32400#5-AddedOnRampEdge -32400#5"/>
	</vehicle>
	<vehicle id="8BEtoFR.1" type="passenger1" depart="27.00" departSpeed="13.89">
		<route edges="-30668#0 -30668#0-AddedOffRampEdge -30668#1 -30668#2-AddedOnRampEdge -30668#2 -30668#2-AddedOffRampEdge -30668#3 -30668#4-AddedOnRampEdge -30668#4 -30668#4-AddedOffRampEdge -30668#5 -30668#6-AddedOnRampEdge -30668#6 -30668#6-AddedOffRampEdge -30440 -31366#0-AddedOnRampEdge -31366#0 -31366#1-AddedOnRampEdge -31366#1 -31366#1-AddedOffRampEdge -31366#2 -31366#3-AddedOnRampEdge -31366#3"/>
	</vehicle>
	<vehicle id="8DEtoFR.2" type="passenger1" depart="27.00" departSpeed="13.89">
		<route edges="-31622#0 -31622#0-AddedOffRampEdge -31622#1 -31622#2-AddedOnRampEdge -31622#2 -31622#2-AddedOffRampEdge -31622#3 -31622#4-AddedOnRampEdge -31622#4 -31622#4-AddedOffRampEdge -31622#5 -31622#5-AddedOffRampEdge -31622#6 -31622#7-AddedOnRampEdge -31622#7 -31622#7-AddedOffRampEdge -31622#8 -31622#8-AddedOffRampEdge -30482 -31366#1-AddedOnRampEdge -31366#1 -31366#1-AddedOffRampEdge -31366#2 -31366#3-AddedOnRampEdge -31366#3"/>
	</vehicle>
	<vehicle id="8FRtoBE.2" type="passenger1" depart="29.00" departSpeed="13.89">
		<route edges="-32426#0 -32426#0-AddedOffRampEdge -32426#1 -32426#2-AddedOnRampEdge -32426#2 -32426#2-AddedOffRampEdge -31052 -32554 -32372#2 -31622#10-AddedOnRampEdge -31622#10 -31622#10-AddedOffRampEdge -31622#11 -31622#12-AddedOnRampEdge -31622#12 -31622#12-AddedOffRampEdge -31622#13 -31622#14-AddedOnRampEdge -31622#14 -31622#14-AddedOffRampEdge -31622#15 -31622#16-AddedOnRampEdge -31622#16"/>
	</vehicle>
	<vehicle id="8LUtoFR.2" type="passenger1" depart="29.00" departSpeed="13.89">
		<route edges="-30706#0 -30706#0-AddedOffRampEdge -31268#0 -31840#0 -31840#1 -31622#7-AddedOnRampEdge -31622#7 -31622#7-AddedOffRampEdge -31622#8 -31622#8-AddedOffRampEdge -30482 -31366#1-AddedOnRampEdge -31366#1 -31366#1-AddedOffRampEdge -31366#2 -31366#3-AddedOnRampEdge -31366#3"/>
	</vehicle>
	<vehicle id="8FRtoDE.3" type="passenger2a" depart="30.00" departSpeed="13.89">
		<route edges="-32426#0 -32426#0-AddedOffRampEdge -32426#1 -32426#2-AddedOnRampEdge -32426#2 -32426#2-AddedOffRampEdge -31052 -30692 -31156#1 -30668#9-AddedOnRampEdge -30668#9 -30668#9-AddedOffRampEdge -30668#10 -30668#10-AddedOffRampEdge -30668#11 -30668#12-AddedOnRampEdge -30668#12 -30668#12-AddedOffRampEdge -30668#13 -30668#14-AddedOnRampEdge -30668#14 -30668#14-AddedOffRampEdge -30668#15 -30668#16-AddedOnRampEdge -30668#16"/>
	</vehicle>
	<vehicle id="8BEtoLU.2" type="passenger1" depart="31.00" departSpeed="13.89">
		<route edges="-30668#0 -30668#0-AddedOffRampEdge -30668#1 -30668#2-AddedOnRampEdge -30668#2 -30668#2-AddedOffRampEdge -30668#3 -30668#4-AddedOnRampEdge -30668#4 -30668#4-AddedOffRampEdge -30668#5 -30668#6-AddedOnRampEdge -30668#6 -30668#6-AddedOffRampEdge -30668#7 -30668#7-AddedOffRampEdge -30668#8 -30668#9-AddedOnRampEdge -30668#9 -30668#9-AddedOffRampEdge -31432 -32400#5-AddedOnRampEdge -32400#5"/>
	</vehicle>
	<vehicle id="8FRtoDE.4" type="passenger1" depart="32.00" departSpeed="13.89">
		<route edges="-32426#0 -32426#0-AddedOffRampEdge -32426#1 -32426#2-AddedOnRampEdge -32426#2 -32426#2-AddedOffRampEdge -31052 -30692 -31156#1 -30668#9-AddedOnRampEdge -30668#9 -30668#9-AddedOffRampEdge -30668#10 -30668#10-AddedOffRampEdge -30668#11 -30668#12-AddedOnRampEdge -30668#12 -30668#12-AddedOffRampEdge -30668#13 -30668#14-AddedOnRampEdge -30668#14 -30668#14-AddedOffRampEdge -30668#15 -30668#16-AddedOnRampEdge -30668#16"/>
	</vehicle>
	<vehicle id="8LUtoBE.4" type="passenger5" depart="32.00" departSpeed="13.89">
		<route edges="-30706#0 -30706#0-AddedOffRampEdge -31268#0 -31840#0 -31840#1 -31622#7-AddedOnRampEdge -31622#7 -31622#7-AddedOffRampEdge -31622#8 -31622#8-AddedOffRampEdge -31622#9 -31622#10-AddedOnRampEdge -31622#10 -31622#10-AddedOffRampEdge -31622#11 -31622#12-AddedOnRampEdge -31622#12 -31622#12-AddedOffRampEdge -31622#13 -31622#14-AddedOnRampEdge -31622#14 -31622#14-AddedOffRampEdge -31622#15 -31622#16-AddedOnRampEdge -31622#16"/>
	</vehicle>
	<vehicle id="8BEtoDE.5" type="passenger4" depart="34.00" departSpeed="13.89">
		<route edges="-30668#0 -30668#0-AddedOffRampEdge -30668#1 -30668#2-AddedOnRampEdge -30668#2 -30668#2-AddedOffRampEdge -30668#3 -30668#4-AddedOnRampEdge -30668#4 -30668#4-AddedOffRampEdge -30668#5 -30668#6-AddedOnRampEdge -30668#6 -30668#6-AddedOffRampEdge -30668#7 -30668#7-AddedOffRampEdge -30668#8 -30668#9-AddedOnRampEdge -30668#9 -30668#9-AddedOffRampEdge -30668#10 -30668#10-AddedOffRampEdge -30668#11 -30668#12-AddedOnRampEdge -30668#12 -30668#12-AddedOffRampEdge -30668#13 -30668#14-AddedOnRampEdge -30668#14 -30668#14-AddedOffRampEdge -30668#15 -30668#16-AddedOnRampEdge -30668#16"/>
	</vehicle>
	<vehicle id="8BEtoFR.2" type="passenger4" depart="34.00" departSpeed="13.89">
		<route edges="-30668#0 -30668#0-AddedOffRampEdge -30668#1 -30668#2-AddedOnRampEdge -30668#2 -30668#2-AddedOffRampEdge -30668#3 -30668#4-AddedOnRampEdge -30668#4 -30668#4-AddedOffRampEdge -30668#5 -30668#6-AddedOnRampEdge -30668#6 -30668#6-AddedOffRampEdge -30440 -31366#0-AddedOnRampEdge -31366#0 -31366#1-AddedOnRampEdge -31366#1 -31366#1-AddedOffRampEdge -31366#2 -31366#3-AddedOnRampEdge -31366#3"/>
	</vehicle>
	<vehicle id="8DEtoBE.2" type="passenger1" depart="34.00" departSpeed="13.89">
		<route edges="-31622#0 -31622#0-AddedOffRampEdge -31622#1 -31622#2-AddedOnRampEdge -31622#2 -31622#2-AddedOffRampEdge -31622#3 -31622#4-AddedOnRampEdge -31622#4 -31622#4-AddedOffRampEdge -31622#5 -31622#5-AddedOffRampEdge -31622#6 -31622#7-AddedOnRampEdge -31622#7 -31622#7-AddedOffRampEdge -31622#8 -31622#8-AddedOffRampEdge -31622#9 -31622#10-AddedOnRampEdge -31622#10 -31622#10-AddedOffRampEdge -31622#11 -31622#12-AddedOnRampEdge -31622#12 -31622#12-AddedOffRampEdge -31622#13 -31622#14-AddedOnRampEdge -31622#14 -31622#14-AddedOffRampEdge -31622#15 -31622#16-AddedOnRampEdge -31622#16"/>
	</vehicle>
	<vehicle id="8LUtoFR.3" type="passenger2a" depart="34.00" departSpeed="13.89">
		<route edges="-30706#0 -30706#0-AddedOffRampEdge -31268#0 -31840#0 -31840#1 -31622#7-AddedOnRampEdge -31622#7 -31622#7-AddedOffRampEdge -31622#8 -31622#8-AddedOffRampEdge -30482 -31366#1-AddedOnRampEdge -31366#1 -31366#1-AddedOffRampEdge -31366#2 -31366#3-AddedOnRampEdge -31366#3"/>
	</vehicle>
	<vehicle id="8BEtoDE.6" type="passenger3" depart="35.00" departSpeed="13.89">
		<route edges="-30668#0 -30668#0-AddedOffRampEdge -30668#1 -30668#2-AddedOnRampEdge -30668#2 -30668#2-AddedOffRampEdge -30668#3 -30668#4-AddedOnRampEdge -30668#4 -30668#4-AddedOffRampEdge -30668#5 -30668#6-AddedOnRampEdge -30668#6 -30668#6-AddedOffRampEdge -30668#7 -30668#7-AddedOffRampEdge -30668#8 -30668#9-AddedOnRampEdge -30668#9 -30668#9-AddedOffRampEdge -30668#10 -30668#10-AddedOffRampEdge -30668#11 -30668#12-AddedOnRampEdge -30668#12 -30668#12-AddedOffRampEdge -30668#13 -30668#14-AddedOnRampEdge -30668#14 -30668#14-AddedOffRampEdge -30668#15 -30668#16-AddedOnRampEdge -30668#16"/>
	</vehicle>
	<vehicle id="8DEtoLU.5" type="passenger2a" depart="35.00" departSpeed="13.89">
		<route edges="-31622#0 -31622#0-AddedOffRampEdge -31622#1 -31622#2-AddedOnRampEdge -31622#2 -31622#2-AddedOffRampEdge -31622#3 -31622#4-AddedOnRampEdge -31622#4 -31622#4-AddedOffRampEdge -31828 -32400#4-AddedOnRampEdge -32400#4 -32400#5-AddedOnRampEdge -32400#5"/>
	</vehicle>
	<vehicle id="8BEtoDE.7" type="passenger1" depart="38.00" departSpeed="13.89">
		<route edges="-30668#0 -30668#0-AddedOffRampEdge -30668#1 -30668#2-AddedOnRampEdge -30668#2 -30668#2-AddedOffRampEdge -30668#3 -30668#4-AddedOnRampEdge -30668#4 -30668#4-AddedOffRampEdge -30668#5 -30668#6-AddedOnRampEdge -30668#6 -30668#6-AddedOffRampEdge -30668#7 -30668#7-AddedOffRampEdge -30668#8 -30668#9-AddedOnRampEdge -30668#9 -30668#9-AddedOffRampEdge -30668#10 -30668#10-AddedOffRampEdge -30668#11 -30668#12-AddedOnRampEdge -30668#12 -30668#12-AddedOffRampEdge -30668#13 -30668#14-AddedOnRampEdge -30668#14 -30668#14-AddedOffRampEdge -30668#15 -30668#16-AddedOnRampEdge -30668#16"/>
	</vehicle>
	<vehicle id="8FRtoBE.3" type="passenger2b" depart="38.00" departSpeed="13.89">
		<route edges="-32426#0 -32426#0-AddedOffRampEdge -32426#1 -32426#2-AddedOnRampEdge -32426#2 -32426#2-AddedOffRampEdge -31052 -32554 -32372#2 -31622#10-AddedOnRampEdge -31622#10 -31622#10-AddedOffRampEdge -31622#11 -31622#12-AddedOnRampEdge -31622#12 -31622#12-AddedOffRampEdge -31622#13 -31622#14-AddedOnRampEdge -31622#14 -31622#14-AddedOffRampEdge -31622#15 -31622#16-AddedOnRampEdge -31622#16"/>
	</vehicle>
	<vehicle id="8FRtoDE.5" type="passenger2b" depart="38.00" departSpeed="13.89">
		<route edges="-32426#0 -32426#0-AddedOffRampEdge -32426#1 -32426#2-AddedOnRampEdge -32426#2 -32426#2-AddedOffRampEdge -31052 -30692 -31156#1 -30668#9-AddedOnRampEdge -30668#9 -30668#9-AddedOffRampEdge -30668#10 -30668#10-AddedOffRampEdge -30668#11 -30668#12-AddedOnRampEdge -30668#12 -30668#12-AddedOffRampEdge -30668#13 -30668#14-AddedOnRampEdge -30668#14 -30668#14-AddedOffRampEdge -30668#15 -30668#16-AddedOnRampEdge -30668#16"/>
	</vehicle>
	<vehicle id="8FRtoLU.1" type="passenger1" depart="38.00" departSpeed="13.89">
		<route edges="-32426#0 -32426#0-AddedOffRampEdge -32426#1 -32426#2-AddedOnRampEdge -32426#2 -32426#2-AddedOffRampEdge -31052 -30692 -31156#1 -30668#9-AddedOnRampEdge -30668#9 -30668#9-AddedOffRampEdge -31432 -32400#5-AddedOnRampEdge -32400#5"/>
	</vehicle>
	<vehicle id="8LUtoDE.4" type="passenger2b" depart="38.00" departSpeed="13.89">
		<route edges="-30706#0 -30706#0-AddedOffRampEdge -31268#0 -31268#1 -31268#2 -30668#12-AddedOnRampEdge -30668#12 -30668#12-AddedOffRampEdge -30668#13 -30668#14-AddedOnRampEdge -30668#14 -30668#14-AddedOffRampEdge -30668#15 -30668#16-AddedOnRampEdge -30668#16"/>
	</vehicle>
	<vehicle id="8FRtoLU.2" type="passenger2b" depart="39.00" departSpeed="13.89">
		<route edges="-32426#0 -32426#0-AddedOffRampEdge -32426#1 -32426#2-AddedOnRampEdge -32426#2 -32426#2-AddedOffRampEdge -31052 -30692 -31156#1 -30668#9-AddedOnRampEdge -30668#9 -30668#9-AddedOffRampEdge -31432 -32400#5-AddedOnRampEdge -32400#5"/>
	</vehicle>
	<vehicle id="8FRtoDE.6" type="passenger2a" depart="42.00" departSpeed="13.89">
		<route edges="-32426#0 -32426#0-AddedOffRampEdge -32426#1 -32426#2-AddedOnRampEdge -32426#2 -32426#2-AddedOffRampEdge -31052 -30692 -31156#1 -30668#9-AddedOnRampEdge -30668#9 -30668#9-AddedOffRampEdge -30668#10 -30668#10-AddedOffRampEdge -30668#11 -30668#12-AddedOnRampEdge -30668#12 -30668#12-AddedOffRampEdge -30668#13 -30668#14-AddedOnRampEdge -30668#14 -30668#14-AddedOffRampEdge -30668#15 -30668#16-AddedOnRampEdge -30668#16"/>
	</vehicle>
	<vehicle id="8LUtoFR.4" type="passenger1" depart="42.00" departSpeed="13.89">
		<route edges="-30706#0 -30706#0-AddedOffRampEdge -31268#0 -31840#0 -31840#1 -31622#7-AddedOnRampEdge -31622#7 -31622#7-AddedOffRampEdge -31622#8 -31622#8-AddedOffRampEdge -30482 -31366#1-AddedOnRampEdge -31366#1 -31366#1-AddedOffRampEdge -31366#2 -31366#3-AddedOnRampEdge -31366#3"/>
	</vehicle>
	<vehicle id="8LUtoDE.5" type="passenger1" depart="43.00" departSpeed="13.89">
		<route edges="-30706#0 -30706#0-AddedOffRampEdge -31268#0 -31268#1 -31268#2 -30668#12-AddedOnRampEdge -30668#12 -30668#12-AddedOffRampEdge -30668#13 -30668#14-AddedOnRampEdge -30668#14 -30668#14-AddedOffRampEdge -30668#15 -30668#16-AddedOnRampEdge -30668#16"/>
	</vehicle>
	<vehicle id="8BEtoDE.8" type="passenger1" depart="44.00" departSpeed="13.89">
		<route edges="-30668#0 -30668#0-AddedOffRampEdge -30668#1 -30668#2-AddedOnRampEdge -30668#2 -30668#2-AddedOffRampEdge -30668#3 -30668#4-AddedOnRampEdge -30668#4 -30668#4-AddedOffRampEdge -30668#5 -30668#6-AddedOnRampEdge -30668#6 -30668#6-AddedOffRampEdge -30668#7 -30668#7-AddedOffRampEdge -30668#8 -30668#9-AddedOnRampEdge -30668#9 -30668#9-AddedOffRampEdge -30668#10 -30668#10-AddedOffRampEdge -30668#11 -30668#12-AddedOnRampEdge -30668#12 -30668#12-AddedOffRampEdge -30668#13 -30668#14-AddedOnRampEdge -30668#14 -30668#14-AddedOffRampEdge -30668#15 -30668#16-AddedOnRampEdge -30668#16"/>
	</vehicle>
	<vehicle id="8BEtoLU.3" type="passenger2a" depart="44.00" departSpeed="13.89">
		<route edges="-30668#0 -30668#0-AddedOffRampEdge -30668#1 -30668#2-AddedOnRampEdge -30668#2 -30668#2-AddedOffRampEdge -30668#3 -30668#4-AddedOnRampEdge -30668#4 -30668#4-AddedOffRampEdge -30668#5 -30668#6-AddedOnRampEdge -30668#6 -30668#6-AddedOffRampEdge -30668#7 -30668#7-AddedOffRampEdge -30668#8 -30668#9-AddedOnRampEdge -30668#9 -30668#9-AddedOffRampEdge -31432 -32400#5-AddedOnRampEdge -32400#5"/>
	</vehicle>
	<vehicle id="8BEtoDE.9" type="passenger1" depart="45.00" departSpeed="13.89">
		<route edges="-30668#0 -30668#0-AddedOffRampEdge -30668#1 -30668#2-AddedOnRampEdge -30668#2 -30668#2-AddedOffRampEdge -30668#3 -30668#4-AddedOnRampEdge -30668#4 -30668#4-AddedOffRampEdge -30668#5 -30668#6-AddedOnRampEdge -30668#6 -30668#6-AddedOffRampEdge -30668#7 -30668#7-AddedOffRampEdge -30668#8 -30668#9-AddedOnRampEdge -30668#9 -30668#9-AddedOffRampEdge -30668#10 -30668#10-AddedOffRampEdge -30668#11 -30668#12-AddedOnRampEdge -30668#12 -30668#12-AddedOffRampEdge -30668#13 -30668#14-AddedOnRampEdge -30668#14 -30668#14-AddedOffRampEdge -30668#15 -30668#16-AddedOnRampEdge -30668#16"/>
	</vehicle>
	<vehicle id="8FRtoDE.7" type="passenger2b" depart="45.00" departSpeed="13.89">