<?xml version="1.0" encoding="UTF-8"?>
<routes xmlns:xsi="http://www.w3.org/2001/XMLSchema-instance" xsi:noNamespaceSchemaLocation="http://sumo.dlr.de/xsd/routes_file.xsd">
	<vehicle id="randUni20266:1" type="passenger4" depart="3.00" departSpeed="0.00" departPos="random" arrivalSpeed="0.00" arrivalPos="random">
		<route edges="--31066#5 --31066#4 --31066#3 --31066#2 --31066#1 --31066#0 -32914#1 --30348#5 --30348#4 --30348#3 --30348#2 --30348#1 --30348#0 --30892#23 --30892#22 --30892#21 --30892#20 --30892#19 --30892#18 --30892#17 --30892#16 --30892#15 --30892#14 --30892#13 --30892#12 --30892#11 --30892#10 --30892#9 --30892#8 --30892#7 --30892#6 --30892#5 --30892#4 --30892#3 --30892#2 --30892#1 --30892#0 -30892 --31834#2 -30384#6 -30384#7 -30944 --31504#2 -30646#0 -30646#1 -30646#2 -30646#3 -30646#4 -30646#5 -30646#6 -30646#7 -30646#8 -30646#9 -30646#10 -30646#11 -30646#12 -31952#14"/>
	</vehicle>
	<vehicle id="randUni6626:1" type="passenger1" depart="3.00" departSpeed="0.00" departPos="random" arrivalSpeed="0.00" arrivalPos="random">
		<route edges="-30610#1 -32974#0 -32278#6 --30620 -31504#0 -31504#1 -31504#2 -30962#0 -30962#1 -30962#2 --30892 -30892#0 -30892#1 -30892#2 -30892#3 -30892#4 -30892#5 --32750#9 --32750#8"/>
	</vehicle>
	<vehicle id="randUni173:1" type="passenger2b" depart="10.00" departSpeed="0.00" departPos="random" arrivalSpeed="0.00" arrivalPos="random">
		<route edges="-30398#5 -30398#6 -30398#7 -30398#8 -30398#9 --31904#2 --31904#1 -32820#1 --30528#24 --30528#23 --30528#22 --30528#21 -31272#0 -31272#1 -31272#2 -31272#3 -31272#4 -31272#5 -31272#6 -30892#17 -30892#18 -30892#19 --30560 --31966#13 --31966#12 --31966#11 --31966#10 --31966#9 --32046#3 --31348 --32392#3 -31674 -32504#4"/>
	</vehicle>
	<vehicle id="randUni19937:1" type="passenger2b" depart="12.00" departSpeed="0.00" departPos="random" arrivalSpeed="0.00" arrivalPos="random">
		<route edges="--30432#6 --30432#5 --30432#4 --30432#3 -31664#0 -30432#13 -30432#14 -31290#8 -31290#9 --30528#38 --30528#37 --30528#36 --30528#35 --30528#34 --30528#33 --30528#32 --30528#31 --30528#30 --30528#29 --30528#28 --30528#27 --30528#26 --30528#25 --30528#24 --30528#23 --30528#22 --30528#21 --30528#20 --30528#19 --30528#18 --30528#17 --30528#16 --30528#15 --30528#14 --30528#13 --30528#12 --30528#11 --30528#10 --30528#9 --30528#8 --30528#7 --30528#6 --30528#5 --30528#4 -31834#0 -31834#1 -31834#2 -30256#0 -30256#1 -30256#2 -30256#3 -31940#0 -31940#1 -31940#2 -31940#3 -31940#4 -31940#5 -31940#6 -32830#2 -32830#3 -32830#4 --31372 -30924#2 -30924#3 -30924#4 -31768#0 -31910#3 -31910#4 -31910#5 --32838#5 --32838#4 --32838#3 --32838#2"/>
	</vehicle>
	<vehicle id="randUni9549:1" type="passenger2b" depart="31.00" departSpeed="0.00" departPos="random" arrivalSpeed="0.00" arrivalPos="random">
		<route edges="-30398#4 -30398#5 -30398#6 -30398#7 -30398#8 -30398#9 --31904#2 --31904#1 -32820#1 -30528#25 -30528#26 -30528#27 -30528#28 -30528#29 -30528#30 -30528#31 --30496#5 --30496#4 --30496#3 --30496#2 --30496#1 --30496#0 -31876#2 -31340#0"/>
	</vehicle>
	<vehicle id="randUni18479:1" type="passenger2a" depart="36.00" departSpeed="0.00" departPos="random" arrivalSpeed="0.00" arrivalPos="random">
		<route edges="--32656#1 -30484 --31952#1 --31952#0 -30648#14 -30648#15 -31492#0 -31492#1 -30528#0 -30528#1 -30528#2 -30528#3 -30528#4 --32750#12 --32750#11 --32750#10 --32750#9 --32750#8 --32750#7 --32750#6 --32750#5 --32750#4 --32750#3 --32750#2 --32750#1 --32750#0 --31496#14 --31496#13 --31496#12 --31496#11 --31496#10 --31496#9 --31496#8 --31496#7 --31496#6 --31496#5 --31496#4 --31496#3 --31466#3 --31466#2 --31466#1 --31466#0 -30888#1 -30888#2 -30404#0 -30404#1 -30404#2 -30404#3 -30404#4 -30404#5 -30358#12 -32482#0 -32482#1 -30592#0 -30592#1"/>
	</vehicle>
	<vehicle id="randUni3723:1" type="passenger2a" depart="43.00" departSpeed="0.00" departPos="random" arrivalSpeed="0.00" arrivalPos="random">
		<route edges="--31272#3 --31272#2 --31272#1 --31272#0 -30528#21 -30528#22 -30528#23 -30528#24 -30528#25 -30528#26 -30528#27 -30528#28 -30528#29 -30528#30 -30528#31 -30528#32 -30528#33 -30528#34 -30528#35 -30528#36 -30528#37 -30528#38 --31290#9 --31290#8 --31290#7 --31290#6 -30432#0 -30432#1 -30432#2 -31664#0 -30432#13"/>
	</vehicle>
	<vehicle id="carIn42625:1" type="passenger1" depart="89.00" departSpeed="0.00" departPos="random" arrivalSpeed="0.00" arrivalPos="random">
		<route edges="-30668#0 -30668#0-AddedOffRampEdge -30668#1 -30668#2-AddedOnRampEdge -30668#2 -30668#2-AddedOffRampEdge -31614 -30924#4 -30924#1 -31372 -32830#1 --31940#6 --31940#5 --31940#4 --32564#2 --32564#1 --32564#0 --31952#15 --31952#14 --31952#13 --31952#12 -30916#0 -30916#1 -30916#2"/>
	</vehicle>
	<vehicle id="h38833c2:1" type="passenger1" depart="91.00" departSpeed="0.00" departPos="random" arrivalSpeed="0.00" arrivalPos="random">
		<route edges="-30458#4 --32586#1 --32586#0 --31636#0 --30528#45 --30528#44 --30528#43 --30528#42 --30528#41 --30528#40 --30528#39 --30528#38 --30528#37 --30528#36 --30528#35 --30528#34 --30528#33 --30528#32 --30528#31 --30528#30 --30528#29 --30528#28 --30528#27 --30528#26 --30528#25 --30528#24 --30528#23 --30528#22 --30528#21 -31272#0 -31272#1 -31272#2 -31272#3 -31272#4 -31272#5 -31272#6 --30892#16 --30892#15 --30892#14 --30892#13 --30892#12 --30892#11 --30892#10 -32924#9 -32924#10 -32924#11 -32924#12 -32924#13 -32924#14 --32750#3 --32750#2 --32750#1 --32750#0 --31496#14 --31496#13 --31496#12 --31496#11 --31496#10 -32776#9 -32776#10 -32896 -32102 -32746#1"/>
	</vehicle>
	<vehicle id="randUni5735:1" type="passenger4" depart="91.00" departSpeed="0.00" departPos="random" arrivalSpeed="0.00" arrivalPos="random">
		<route edges="--31768#4 --31768#3 --31768#2 --31768#1 --31768#0 -30924#1 -31372 -32830#1 --31940#6 --31940#5 --31940#4 --31940#3 --31940#2 --31940#1 --31940#0 --30256#3 --30256#2 --30256#1 --30256#0 --31834#2 -30384#6 -30384#7 -30944 --31504#2 --31504#1 --31504#0 -30620 --32278#6 --32278#5 --32278#4 --32278#3 --32278#2 --32278#1 --32940#1 --32940#0 -32340#3"/>
	</vehicle>
	<vehicle id="randUni5861:1" type="passenger1" depart="91.00" departSpeed="0.00" departPos="random" arrivalSpeed="0.00" arrivalPos="random">
		<route edges="-32830#4 -32830#1 --31940#6 --31940#5 --31940#4 --31940#3 --31940#2 --31940#1 --31940#0 --30256#3 --30256#2 --30256#1 --30256#0 --31834#2 --31834#1 --31834#0 --30528#3 --30528#2 --30528#1 --30528#0 -31492#2 --32674#9 --32674#8 --32674#7 --32674#6 --32674#5 --32674#4 --32674#3 --32674#2 --32674#1 --32674#0 --30856#18"/>
	</vehicle>
	<vehicle id="randUni15218:1" type="passenger2a" depart="102.00" departSpeed="0.00" departPos="random" arrivalSpeed="0.00" arrivalPos="random">
		<route edges="--30646#7 --30646#6 --30646#5 --30646#4 --30646#3 --30646#2 --30646#1 --30646#0 -31504#2 -30962#0 -30962#1 -30962#2 --31834#2 --31834#1 --31834#0 -30528#4 -30528#5 -30528#6 -30528#7 -30528#8 -30528#9 -30528#10 -30528#11 -30528#12 -30528#13 -32850 -31890 -32132 --30456 --31788 -32468#3 -32468#4 -32468#5 -32468#6 -32468#7 -32382#0 --31818#23 --31818#22 --31818#21 --31818#20 --31818#19 --31818#18 --31818#17 --31016#2 -31742#0"/>
	</vehicle>
	<vehicle id="randUni20780:1" type="passenger1" depart="104.00" departSpeed="0.00" departPos="random" arrivalSpeed="0.00" arrivalPos="random">
		<route edges="-30648#1 -30648#2 -30648#3 -30648#4 -30648#5 -30648#6 -30648#7 -30648#8 -30648#9 -30648#10 -30648#11 -30648#12 -30648#13 -30648#14 -30648#15 -31492#0 -31492#1 -30528#0 -30528#1 -30528#2 -30528#3 -30528#4 -30528#5 -30528#6 -32924#5 -32924#6 -32924#7 -32924#8 -30892#10 -30892#11 -30892#12 -30892#13 -30892#14 -30892#15 -30892#16 -30892#17 -30892#18 -30892#19 --30560 --31966#13 --31966#12 --31966#11 --31966#10 --32742#5 --32742#4 --32636"/>
	</vehicle>
	<vehicle id="randUni5:1" type="passenger1" depart="110.00" departSpeed="0.00" departPos="random" arrivalSpeed="0.00" arrivalPos="random">
		<route edges="--31066#8 --30892#21 --30892#20 --30892#19 --30892#18 --30892#17 --30892#16 --30892#15 --30892#14 --30892#13 --30892#12 --30892#11 --30892#10 --32924#8 --32924#7 --32924#6 --32924#5 --30528#6 --30528#5 --30528#4 --30528#3 --30528#2 --30528#1 --30528#0 --31492#1 --31492#0 --30648#15 --30648#14 --30648#13 -32552#0 -30850#0 -30850#1 -30850#2 -32204 -30926"/>
	</vehicle>
	<vehicle id="randUni5018:1" type="passenger4" depart="121.00" departSpeed="0.00" departPos="random" arrivalSpeed="0.00" arrivalPos="random">
		<route edges="-32382#2 --32468#7 --32468#6 --32468#5 --32468#4 --32468#3 --32468#2 --32468#1 --32178 -30608#9 -30608#10 -30568 -31232 -31030 -31380#0 -31380#1 -31380#2 --30528#7 --30528#6 --30528#5 --30528#4 -31834#0 -31834#1 -31834#2 -30256#0 -30256#1 -30256#2 -30256#3 -31940#0 -31940#1 -31940#2 -31940#3 -31940#4 -31940#5 -31940#6 -32830#2 -32830#3 -32830#4 --31372 -30924#2 -30924#3 -30924#4 -31768#0 -31768#1 -31820#0 -31820#1 -31660 --32058#10 --32058#9 -31906#0"/>
	</vehicle>
	<vehicle id="randUni14292:1" type="passenger3" depart="133.00" departSpeed="0.00" departPos="random" arrivalSpeed="0.00" arrivalPos="random">
		<route edges="-31290#8 --31428#1 --31428#0 --30528#36 --30528#35 --30528#34 --30528#33 --30528#32 --30528#31 --30528#30 --30528#29 --30528#28 --30528#27 --30528#26 --30528#25 --30528#24 --30528#23 --30528#22 --30528#21 --30528#20 --30528#19 --30528#18 --30528#17 --30528#16 --30528#15 --30528#14 --30528#13 --30528#12 --30528#11 --30528#10 --30528#9 --30528#8 --30528#7 --30528#6 --30528#5 --30528#4 --30528#3 --30528#2 -31068#0 -31068#1 -30620 --32278#6 --32278#5 --32278#4 --32278#3 --32278#2"/>
	</vehicle>
	<vehicle id="randUni20668:1" type="passenger2b" depart="134.00" departSpeed="0.00" departPos="random" arrivalSpeed="0.00" arrivalPos="random">
		<route edges="-31268#2 -30668#12-AddedOnRampEdge -30668#12 -30668#12-AddedOffRampEdge -32582 -32764#4 -32764#5 -32764#6 -32764#7 -32764#1 -32764#2 -30426 -31622#4-AddedOnRampEdge -31622#4 -31622#4-AddedOffRampEdge -31828"/>
	</vehicle>
	<vehicle id="randUni20068:1" type="passenger1" depart="140.00" departSpeed="0.00" departPos="random" arrivalSpeed="0.00" arrivalPos="random">
		<route edges="-31844#1 -30836 -31524#1 -31310 --31878#1 --31878#0 -30872#0 -30872#1 -30872#2 -30872#3 -32750#2 -32750#3 --32924#14 --32924#13 --32924#12 --32924#11 --32924#10 --32924#9 -30892#10 -30892#11 -30892#12 -30892#13 -30892#14 -30892#15 -30892#16 --31272#6 --31272#5 --31272#4 --31272#3 --31272#2 --31272#1 --31272#0 -30528#21 -30528#22 -30528#23 -30528#24 -30528#25 -30528#26 -30528#27 -30528#28 -30528#29 -30528#30 -30528#31 -30528#32 -30528#33 -30528#34 -30528#35 -30528#36 -30528#37 -30528#38 -30528#39 -30528#40 -30528#41 -30528#42 --31794#7 --31794#6 --31794#5 --31794#4 -31884#0 -31884#1 -31884#2 -31884#3 -31884#4"/>
	</vehicle>
	<vehicle id="randUni5473:1" type="passenger2a" depart="147.00" departSpeed="0.00" departPos="random" arrivalSpeed="0.00" arrivalPos="random">
		<route edges="-31818#5 -31818#6 -31818#7 -31818#8 -31818#9 -31818#10 -31818#11 -31818#12 -31818#13 -31818#14 -31818#15 -31818#16 -31818#17 -31818#18 --31716 --31766 -32432#13 -32432#14 -32432#15 -32382#2 --32468#7 --32468#6 --32468#5 --32468#4 --32468#3 --32468#2 --32468#1 --32178 -30608#9 -30608#10 -32410#3 -31994 --31492#1 --31492#0 --30648#15 --30648#14 --30648#13 -32552#0 -32552#1 -32552#2"/>
	</vehicle>
	<vehicle id="randUni14778:1" type="passenger2b" depart="168.00" departSpeed="0.00" departPos="random" arrivalSpeed="0.00" arrivalPos="random">
		<route edges="--31990#0 -31496#6 -31496#7 -31496#8 -31496#9 -31496#10 -31496#11 -31496#12 -31496#13 -31496#14 -32750#0 -32750#1 -32750#2 -32750#3 --32924#14 --32924#13 --32924#12 --32924#11 --32924#10 --32924#9 -30892#10 -30892#11 -30892#12 -30892#13 -30892#14 -30892#15 -30892#16 --31272#6 --31272#5 --31272#4 --31272#3 --31272#2 --31272#1 --31272#0 -30528#21 -30528#22 -30528#23 -30528#24 -30528#25 -30528#26 -30528#27 -30528#28 -30528#29 -30528#30 -30528#31 -30528#32 -30528#33 -30528#34 -30528#35 -30528#36 -30528#37 -30528#38 -30528#39 -30528#40 -30528#41 -30528#42 -30528#43 -30528#44 -30528#45 -30528#46 -30528#47 -30528#48 -32226#0 -31450#0 -31450#1 -31280#0 -31280#1 -31280#2 -30720#2 -30720#3"/>
	</vehicle>
	<vehicle id="randUni15132:1" type="passenger1" depart="173.00" departSpeed="0.00" departPos="random" arrivalSpeed="0.00" arrivalPos="random">
		<route edges="-30398#3 -31016#1 -31016#2 -31818#17 -31818#18 --31716 --31766 -32432#13 -32432#14 -32432#15 -32382#2 --32468#7 --32468#6 --32468#5 --32468#4 --32468#3 --32468#2 --32468#1 --32178 -30608#9 -30608#10 -30568 -31232 -31030 -31380#0 -31380#1 -31380#2 --30528#7 --30528#6 --30528#5 --30528#4 -31834#0 -31834#1 -30384#6 -30384#7 -30944 --31504#2 -30646#0 -30646#1 -30646#2 -30646#3 -30646#4 -30646#5 -30646#6 -30646#7"/>
	</vehicle>
	<vehicle id="randUni8932:1" type="passenger2b" depart="185.00" departSpeed="0.00" departPos="random" arrivalSpeed="0.00" arrivalPos="random">
		<route edges="--31360#1 --31360#0 -32928#1 --30828#0 -30802#1 -32776#0 -32776#1 --31940#4 --31940#3 --31940#2 --31940#1 --31940#0 --30256#3 --30256#2 --30256#1 --30256#0 --31834#2 -30384#6 -30384#7 -30944 --31504#2 --31504#1 --31504#0 -30620 --32278#6 --32278#5 --31258#1 -31942#0"/>
	</vehicle>
	<vehicle id="randUni11014:1" type="passenger3" depart="192.00" departSpeed="0.00" departPos="random" arrivalSpeed="0.00" arrivalPos="random">
		<route edges="--32174#3 -32826#2 --32174#1 --32174#0 -31496#7 -31496#8 -31496#9 -31496#10 -31496#11 -31496#12 -31496#13 -31496#14 -32750#0 -32750#1 -32750#2 -32750#3 --32924#14 --32924#13 --32924#12 --32924#11 --32924#10 --32924#9 -30892#10 -30892#11 -30892#12 -30892#13 -30892#14 -30892#15 -30892#16 --31272#6 --31272#5 --31272#4 --31272#3 --31272#2 --31272#1 --31272#0 -30528#21 -30528#22 -30528#23 -30528#24 -30528#25 -30528#26 -30528#27 -30528#28 -30528#29 -30528#30 -30528#31 -30528#32 -30528#33 -30528#34 -30528#35 -30528#36 -30528#37 -30528#38 -30528#39 -30528#40 -30528#41"/>
	</vehicle>
	<vehicle id="randUni4721:1" type="passenger5" depart="193.00" departSpeed="0.00" departPos="random" arrivalSpeed="0.00" arrivalPos="random">
		<route edges="--32722#2 --32722#1 --32722#0 -30672#5 -31436#1 -31436#2 --30404#0 -30888#3 -30888#0 -31466#0 -31466#1 -31466#2 -31466#3 -31496#3 -31496#4 -31496#5 --32664#2 --32664#1 --32664#0 --32776#10 --32776#9"/>
	</vehicle>
	<vehicle id="randUni4101:1" type="passenger1" depart="235.00" departSpeed="0.00" departPos="random" arrivalSpeed="0.00" arrivalPos="random">
		<route edges="--32638#11 --31742#0 -31016#2 -31818#17 -31818#18 --31716 --31766 -32432#13 -32432#14 -32432#15 -32382#2 --32468#7 --32468#6 --32468#5 --32468#4 --32468#3 --32468#2 --32468#1 --32178 -30608#9 -30608#10 -30568 -31232 -31030 -31380#0 -31380#1 -31380#2 --30528#7 --30528#6 --30528#5 --30528#4 -31834#0 -31834#1 -31834#2 -30256#0 -30256#1 -30256#2 -30256#3 -31940#0 -31940#1 -31940#2 -31940#3 -31940#4 -31940#5 -31940#6 -32830#2 -32830#3 -32830#4 --31372 -30924#2 -30924#3 -30924#4 -31768#0 --31910#2 -31668#5 --31820#0"/>
	</vehicle>
	<vehicle id="randUni8207:1" type="passenger1" depart="235.00" departSpeed="0.00" departPos="random" arrivalSpeed="0.00" arrivalPos="random">
		<route edges="-30520#0 -32924#11 -32924#12 -32924#13 -32924#14 --32750#3 --32750#2 --32750#1 --32750#0 --31496#14 --31496#13 --31496#12 --31496#11 --31496#10 --31496#9 --31496#8 --31496#7 --31496#6 --31496#5 --31496#4 --31496#3 --31496#2 --31496#1 --31496#0 -31162#4 -30336#0"/>
	</vehicle>
	<vehicle id="randUni11048:1" type="passenger2a" depart="246.00" departSpeed="0.00" departPos="random" arrivalSpeed="0.00" arrivalPos="random">
		<route edges="-30770#3 -32924#14 --32750#3 --32750#2 --32750#1 --32750#0 --31496#14 --31496#13 -32366#0 -32366#1 -32366#2 -31962#2 -31962#3"/>
	</vehicle>
	<vehicle id="randUni14418:1" type="passenger1" depart="256.00" departSpeed="0.00" departPos="random" arrivalSpeed="0.00" arrivalPos="random">
		<route edges="--31602#2 -32270#2 -32270#3 --30892#15 --30892#14 --30892#13 --30892#12 --30892#11 --30892#10 --32924#8 --32924#7 --32924#6 -30644#0"/>
	</vehicle>
	<vehicle id="randUni14284:1" type="passenger2a" depart="265.00" departSpeed="0.00" departPos="random" arrivalSpeed="0.00" arrivalPos="random">
		<route edges="-30810#1 --30766#4 --32974#1 -32278#6 --30620 -31504#0 -31504#1 -31504#2 -30962#0 -30962#1 -30962#2 --30892 -30892#0 -30892#1 -30892#2 -30892#3 -30892#4 -30892#5 --32750#9 --32750#8 --32750#7 --32750#6 --32750#5 --32750#4 --32750#3 --32750#2 --32750#1 --32750#0 --31496#14 --31496#13 --31496#12 --31496#11 --31496#10 --31496#9 --31496#8 --31496#7 --31496#6 --31496#5 --31496#4 --31496#3 --31466#3 --31466#2 --31466#1 --31466#0 -30888#1 -32308#0 --30942#2 -31460#0 -31460#1 -31460#2"/>
	</vehicle>
	<vehicle id="randUni5407:1" type="passenger3" depart="274.00" departSpeed="0.00" departPos="random" arrivalSpeed="0.00" arrivalPos="random">
		<route edges="-31298#1 --30504#0 -31818#14 -31818#15 -31818#16 -31818#17 -31818#18 --31716 --31766 -32432#13 -32432#14 -32432#15 -32382#2 --32468#7 --32468#6 --32468#5 --32468#4 --32468#3 --32468#2 --32468#1 --32178 -30608#9 -30608#10 -30568 -31232 -31030 -31380#0 -31380#1 -31380#2 --30528#7 --30528#6 --30528#5 --32750#12 --32750#11 --32750#10 --32750#9 --32750#8 --32750#7 --32750#6 --32750#5 --32750#4 --32750#3 --32750#2 --32750#1 --32750#0 --31496#14 --31496#13 --31496#12 --31496#11 --31496#10 --31496#9 --31806#1 --31806#0 -32050#1 -32596#0 -32596#1 --31414#1 -32328 --31906#4 --31906#3 --31906#2"/>
	</vehicle>
	<vehicle id="randUni3502:1" type="passenger4" depart="284.00" departSpeed="0.00" departPos="random" arrivalSpeed="0.00" arrivalPos="random">
		<route edges="-31222 -31950#1 -31950#2 -30358#17 -30358#18 -30336#1 -30336#2 -30888#0 -30888#1 -32308#0 -32308#1 -32308#2 -31004#0 -31004#1 -32878#0 -32878#1 --31046#1"/>
	</vehicle>
	<vehicle id="randUni13732:1" type="passenger3" depart="285.00" departSpeed="0.00" departPos="random" arrivalSpeed="0.00" arrivalPos="random">
		<route edges="-31496#14 -32750#0 -32750#1 -32750#2 -32750#3 -32750#4 -32750#5 -32750#6 -32750#7 -32750#8 -32750#9 -32750#10 -32750#11 -32750#12 -30528#5 -30528#6 -30528#7 -30528#8 -30528#9 -30528#10 -30528#11 -30528#12 -30528#13 -32850 -31890 -32132 --30456 --31788 -32468#3 -32468#4 -32468#5 -32468#6 --31388#1 --31388#0 -32020#1 -32832#1 -32832#2"/>
	</vehicle>
	<vehicle id="carIn24186:1" type="passenger5" depart="287.00" departSpeed="0.00" departPos="random" arrivalSpeed="0.00" arrivalPos="random">
		<route edges="--31448 --32552#5 --32552#4 --32552#3 --32552#2 --32552#1 --32552#0 -30648#13 -30648#14 -30648#15 -31492#0 -31492#1 -30528#0 -30528#1 -30528#2 -30528#3 -30528#4 -30528#5 -30528#6 -30528#7 --31380#2 --31380#1 --31380#0 --31030 --31232 --30568 --30608#10 --30608#9 --30608#8 --30608#7 --30608#6 --30608#5 --30608#4 --30608#3 --30608#2"/>
	</vehicle>
	<vehicle id="randUni4403:1" type="passenger1" depart="290.00" departSpeed="0.00" departPos="random" arrivalSpeed="0.00" arrivalPos="random">
		<route edges="-30860#0 -30860#1 --31752 --31330 -30338 -31780 --31068#1 --31068#0 -30528#2 -30528#3 -30528#4 -30528#5 -30528#6 -30528#7 -30528#8 -30528#9 -30528#10 -30528#11 -30528#12 -30528#13 -32850 -31890 -32132 --30456 --31788 -32468#3 -32468#4 -32468#5 -32468#6 -32468#7 -32382#0 --31818#23 --31818#22 --31818#21 --31818#20 --31818#19 --31818#18 --31818#17 --31818#16 --31818#15 --31818#14 --31818#13 --31818#12 --31818#11 --31818#10 --31818#9 --31818#8 --31818#7 --31818#6 --31818#5 --31818#4 --31818#3 --32912#1 --32912#0 --30436#3 --30538#1 --30538#0 -30328#1 -30328#2"/>
	</vehicle>
	<vehicle id="randUni14190:1" type="passenger2b" depart="293.00" departSpeed="0.00" departPos="random" arrivalSpeed="0.00" arrivalPos="random">
		<route edges="-32318 -31794#7 --30528#42 --30528#41 --30528#40 --30528#39 --30528#38 --30528#37 --30528#36 --30528#35 --30528#34 --30528#33 --30528#32 --30528#31 --30528#30 --30528#29 --30528#28 --30528#27 --30528#26 --30528#25 --30528#24 --30528#23 --30528#22 --30528#21 --30528#20 --30528#19 --30528#18 --30528#17 --30528#16 --30528#15 --30528#14 --30528#13 --30528#12 --30528#11 --30528#10 --30528#9 --30528#8 --30528#7 --30528#6 --30528#5 --30528#4 -31834#0 -31834#1 -31834#2 -30256#0 -30256#1 -30256#2 -30256#3 -31940#0 -31940#1 -31940#2 -31940#3 -31940#4 --32776#1 --32776#0 -30802#2 -31174#0 --32780 --30392#1 -32806"/>
	</vehicle>
	<vehicle id="randUni3574:1" type="passenger3" depart="298.00" departSpeed="0.00" departPos="random" arrivalSpeed="0.00" arrivalPos="random">
		<route edges="-30576#2 -32042#2 -31562#3 -31562#4 -30772#1 -30772#2 --32306#4 --32306#3 --32306#2 --32306#1 --32306#0 -31496#4 -31496#5 -31496#6 -31496#7 -31496#8 -31496#9 -31496#10 -31496#11 -31458#0 -31616 --31748#2 --31748#1 --31718#5"/>
	</vehicle>
	<vehicle id="randUni9971:1" type="passenger1" depart="299.00" departSpeed="0.00" departPos="random" arrivalSpeed="0.00" arrivalPos="random">
		<route edges="-30384#3 -30384#4 -30384#5 -30384#6 --31838#1 -30962#2 --30892 -30892#0 -30892#1 -30892#2 -30892#3 -30892#4 -30892#5 --32750#9 --32750#8 --32750#7 --32750#6 --32750#5 --32750#4 --32750#3 --32750#2 -30872#4 --32598#1"/>
	</vehicle>
	<vehicle id="randUni9691:1" type="passenger2a" depart="309.00" departSpeed="0.00" departPos="random" arrivalSpeed="0.00" arrivalPos="random">
		<route edges="--32676#0 -32674#1 -32674#2 -32674#3 -32674#4 -32674#5 -32674#6 -32674#7 -32674#8 -32674#9 --31492#2 -30528#0 -30528#1 -31068#0 -31068#1 -32574 -30338 --32652#9 --32652#8 --32652#7 --32652#6 --32652#5 --32652#4 -30928"/>
	</vehicle>
	<vehicle id="h17907c1:1" type="passenger1" depart="311.00" departSpeed="0.00" departPos="random" arrivalSpeed="0.00" arrivalPos="random">
		<route edges="--31610#0 -30892#5 -32750#10 -32750#11 -32750#12 -30528#5 -30528#6 -30528#7 -30528#8 -30528#9 -30528#10 -30528#11 -30528#12 -30528#13 -30528#14 -30528#15 -30528#16 -30528#17 -30528#18 -30528#19 -30528#20 -30528#21 -30528#22 -30528#23 -30528#24 -30528#25 -30528#26 -30528#27 -30528#28 -30528#29 -30528#30 -30528#31 -30528#32 -30528#33 -30528#34 -30528#35 -30528#36 -30528#37 -30528#38 -30528#39 -30528#40 -30528#41 -30528#42 -30528#43 -30528#44 -30528#45 -30528#46 -30528#47"/>
	</vehicle>
	<vehicle id="randUni14526:1" type="passenger1" depart="331.00" departSpeed="0.00" departPos="random" arrivalSpeed="0.00" arrivalPos="random">
		<route edges="--30860#3 --30860#2 --30860#1 --30860#0 --30632#1 --30632#0 -30338 -31780 --31068#1 --31068#0 -30528#2 -30528#3 -30528#4 -30528#5 -32282#0"/>
	</vehicle>
	<vehicle id="randUni18795:1" type="passenger1" depart="346.00" departSpeed="0.00" departPos="random" arrivalSpeed="0.00" arrivalPos="random">
		<route edges="-30418#1 --31958 --32028#1 --30262#0 -32924#13 -32924#14 --32750#3 --32750#2 --32750#1 --32750#0 --31496#14 --31496#13 --31496#12 --31496#11 --31496#10 --31496#9 --31496#8 --31496#7 --31496#6 --31496#5 --31496#4 -32306#0 -31440 -31622#12-AddedOnRampEdge -31622#12 -31622#12-AddedOffRampEdge"/>
	</vehicle>
	<vehicle id="randUni100:1" type="passenger1" depart="349.00" departSpeed="0.00" departPos="random" arrivalSpeed="0.00" arrivalPos="random">
		<route edges="-31652#1 -31748#0 -31748#1 -30370#5 -30784 -32750#0 -32750#1 -32750#2 -32750#3 -32750#4 -32750#5 -32750#6 -32750#7 -32750#8 -32750#9 -32750#10 -32750#11 -32750#12 -30528#5 -30528#6 -30528#7 --31380#2 --31380#1 --31380#0 --31030 --31232 --30568 --30608#10 --30608#9 --30608#8 --30608#7 --30608#6 --30608#5"/>
	</vehicle>
	<vehicle id="randUni6163:1" type="passenger2a" depart="352.00" departSpeed="0.00" departPos="random" arrivalSpeed="0.00" arrivalPos="random">
		<route edges="-32638#11 -31818#15 -31818#16 -31818#17 -31818#18 --31716 --31766 -32432#13 -32432#14 -32432#15 -32382#2 --32468#7 --32468#6 --32468#5 --32468#4 --32468#3 --32468#2 --32468#1 --32178 -30608#9 -30608#10 -30568 -31232 -31030 -31380#0 -31380#1 -31380#2 --30528#7 --30528#6 --30528#5 --32750#12 --32750#11 --32750#10 --30892#5 --30892#4 -32016 -32644#2"/>
	</vehicle>
	<vehicle id="randUni6423:1" type="passenger4" depart="353.00" departSpeed="0.00" departPos="random" arrivalSpeed="0.00" arrivalPos="random">
		<route edges="--31380#1 -32418 --30528#9 --30528#8 --30528#7 --30528#6 --30528#5 --30528#4 --30528#3 --30528#2 -31068#0 -31068#1 -30620 --32278#6 --32278#5 --31258#1 --31258#0 --31070#3 -32078 --30894#1 --30894#0 -31446#1"/>
	</vehicle>
	<vehicle id="randUni19723:1" type="passenger1" depart="355.00" departSpeed="0.00" departPos="random" arrivalSpeed="0.00" arrivalPos="random">
		<route edges="-30478#1 -30478#2 -30244#2 -30244#3 -30244#4 -32340#5 -32340#7 -32770#6 -32770#7 -32770#1 -30312 -31622#2-AddedOnRampEdge -31622#2 -31622#2-AddedOffRampEdge -31622#3 -31622#4-AddedOnRampEdge -31622#4 -31622#4-AddedOffRampEdge -31622#5 -31622#5-AddedOffRampEdge -31760 -30706#3-AddedOnRampEdge -31582#0 -31582#1 -31110 -30612 -30994#1 -31502 -31712#1 -31794#0 -32150 --31944#12 --31944#11 --31944#10 --31944#9 --31944#8 --30288#1"/>
	</vehicle>
	<vehicle id="randUni19136:1" type="passenger2a" depart="360.00" departSpeed="0.00" departPos="random" arrivalSpeed="0.00" arrivalPos="random">
		<route edges="-32054#1 --32080#1 --32080#0 --31818#11 --31818#10 --31818#9 --31818#8 --31818#7 --31818#6 --31818#5 --31818#4 --31818#3 --31818#2 --31818#1 --30436#5"/>
	</vehicle>
	<vehicle id="randUni3290:1" type="passenger2a" depart="366.00" departSpeed="0.00" departPos="random" arrivalSpeed="0.00" arrivalPos="random">
		<route edges="--32786#4 --32028#3 -30520#0 --32924#10 --32924#9 --32924#8 --32924#7 --32924#6 --32924#5 --30528#6 --30528#5 --30528#4 --30528#3 --30528#2 --30528#1 --30528#0 --31492#1 --31492#0 --30648#15 --30648#14"/>
	</vehicle>
	<vehicle id="randUni763:1" type="passenger1" depart="371.00" departSpeed="0.00" departPos="random" arrivalSpeed="0.00" arrivalPos="random">
		<route edges="-31784#0 -32256 -31962#4 -32750#0 -32750#1 -32750#2 -32750#3 -32750#4 -32750#5 -32750#6 -32750#7 -32750#8 -32750#9 --30892#5 --30892#4 --30892#3 --30892#2 --30892#1 --30892#0 -30892 --31834#2 -30384#6 -30384#7 -30944 --31504#2 --31504#1 --31504#0 -32574 -30632#0 -30632#1 -30860#0 -30860#1 -30860#2 -30860#3 -30934#0 --31516"/>
	</vehicle>
	<vehicle id="randUni15751:1" type="passenger2b" depart="393.00" departSpeed="0.00" departPos="random" arrivalSpeed="0.00" arrivalPos="random">
		<route edges="-30642 --31380#1 --31380#0 --31030 --31232 --30568 --32410#2 --32410#1 -31890 -32132 --30456 --31788 -32468#3 -32468#4 -32468#5 -32468#6 -32468#7 -32382#0 --31818#23 --31818#22 --31818#21 --31818#20 --31818#19 --31818#18 --31818#17 --31818#16 --31818#15 --32638#11 --32638#10 --30398#2 -32054#0 --30492"/>
	</vehicle>
	<vehicle id="randUni7676:1" type="passenger1" depart="393.00" departSpeed="0.00" departPos="random" arrivalSpeed="0.00" arrivalPos="random">
		<route edges="-31544#1 --31068#0 -30528#2 -30528#3 -31834#0 -31834#1 -31834#2 -30256#0 -30256#1 -30256#2 -30256#3 -31940#0 -31940#1 -31940#2 -31940#3 -31940#4 -31940#5 -31940#6 -32830#2 -32830#3 -32214 -30668#4-AddedOnRampEdge -30668#4 -30668#4-AddedOffRampEdge -31762"/>
	</vehicle>
	<vehicle id="randUni120:1" type="passenger2a" depart="394.00" departSpeed="0.00" departPos="random" arrivalSpeed="0.00" arrivalPos="random">
		<route edges="-32664#0 -32664#1 -31974 -31496#8 -31496#9 -31496#10 -31496#11 -31496#12 -31496#13 -31496#14 -32750#0 -32750#1 -32750#2 -32750#3 --32924#14 --32924#13 --32924#12 --32924#11 --32924#10 --32924#9 -30892#10 -30892#11 -30892#12 -30892#13 -30892#14 -30892#15 -30892#16 -30892#17 -30892#18 -30892#19 -30892#20 -30892#21 -30892#22 -30892#23 -30892#24 -30892#25 -30892#26 -31680#3 -31680#4 -31680#1 -32532 -32848 -31078#1 -31260 -30324 -31110 -30612 -30994#1 -31502 -31712#1 -31794#0 -31794#1 -31794#2 -31794#3"/>
	</vehicle>
	<vehicle id="randUni9457:1" type="passenger1" depart="394.00" departSpeed="0.00" departPos="random" arrivalSpeed="0.00" arrivalPos="random">
		<route edges="-30672#5 -31436#1 -31436#2 --30404#0 -30888#3 -30888#0 -31466#0 -31466#1 -31466#2 -31466#3 -31496#3 -31496#4 -31496#5 -31496#6 -31496#7 -31496#8 -31496#9 -31496#10 -31496#11 -31496#12 -31496#13 -31496#14 -32750#0 -32750#1 -32750#2 -32750#3 --32924#14 --32924#13 --32924#12 --32924#11 --32924#10 --32924#9 -30892#10 -30892#11 -30892#12 -30892#13 -30892#14 -30892#15 -30892#16 -30892#17 -30892#18 -30892#19 -30892#20 -30892#21 -30892#22 -30892#23 -30348#0 -30348#1 -30348#2 -30348#3 -30348#4 --32474#1 --32474#0 -32618#3"/>
	</vehicle>
	<vehicle id="randUni16944:1" type="passenger2a" depart="398.00" departSpeed="0.00" departPos="random" arrivalSpeed="0.00" arrivalPos="random">
		<route edges="-31818#23 -32382#1 -32382#2 --32468#7 --32468#6 --32468#5 --32468#4 --32468#3 --32468#2 --32468#1 --32178 -30608#9 -30608#10 -30568 -31232 -31030 -31380#0 -31380#1 -31380#2 --30528#7 --30528#6 --30528#5 --30528#4 --30528#3 --30528#2 -31068#0 -31068#1 -30620 --31070#9 --31070#8 --31070#7 --31070#6 --31070#5 --30596#2 --30730#3"/>
	</vehicle>
	<vehicle id="randUni20098:1" type="passenger1" depart="408.00" departSpeed="0.00" departPos="random" arrivalSpeed="0.00" arrivalPos="random">
		<route edges="-32958 -32228 --30528#10 --30528#9 --30528#8 --30528#7 --30528#6 --30528#5 --32750#12 --32750#11 --32750#10 --32750#9 --32750#8 --32750#7 --32750#6 --32750#5 --32750#4 --32750#3 --32750#2 --32750#1 --32750#0 --30784 --30370#5 --31748#1 --31748#0 --32032 --32752#0"/>
	</vehicle>
	<vehicle id="randUni12896:1" type="passenger1" depart="417.00" departSpeed="0.00" departPos="random" arrivalSpeed="0.00" arrivalPos="random">
		<route edges="-30328#3 -30436#2 -30436#3 -32912#0 -32912#1 -31818#3 -31818#4 -31818#5 -31818#6 -31818#7 -31818#8 -31818#9 -31818#10 -31818#11 -31818#12 -31818#13 -31818#14 -31818#15 -31818#16 -31818#17 -31818#18 --31716 --31766 -32432#13 -32432#14 -32432#15 -32382#2 --32468#7 --32468#6 --32468#5 --32468#4 --32468#3 --32468#2 --32468#1 --32468#0 --30608#7 --30608#6 -32280#3 -31154 -32530#1 -30856#2 -30856#3 -30856#4 -30856#5 --31550#2 --31550#1 --31550#0"/>
	</vehicle>