<?xml version="1.0" encoding="UTF-8"?>
<routes xmlns:xsi="http://www.w3.org/2001/XMLSchema-instance" xsi:noNamespaceSchemaLocation="http://sumo.dlr.de/xsd/routes_file.xsd">
	<vehicle id="3BEtoDE.0" type="passenger2b" depart="0.00" departSpeed="13.89">
		<route edges="-30668#0 -30668#0-AddedOffRampEdge -30668#1 -30668#2-AddedOnRampEdge -30668#2 -30668#2-AddedOffRampEdge -30668#3 -30668#4-AddedOnRampEdge -30668#4 -30668#4-AddedOffRampEdge -30668#5 -30668#6-AddedOnRampEdge -30668#6 -30668#6-AddedOffRampEdge -30668#7 -30668#7-AddedOffRampEdge -30668#8 -30668#9-AddedOnRampEdge -30668#9 -30668#9-AddedOffRampEdge -30668#10 -30668#10-AddedOffRampEdge -30668#11 -30668#12-AddedOnRampEdge -30668#12 -30668#12-AddedOffRampEdge -30668#13 -30668#14-AddedOnRampEdge -30668#14 -30668#14-AddedOffRampEdge -30668#15 -30668#16-AddedOnRampEdge -30668#16"/>
	</vehicle>
	<vehicle id="3DEtoFR.0" type="passenger5" depart="0.00" departSpeed="13.89">
		<route edges="-31622#0 -31622#0-AddedOffRampEdge -31622#1 -31622#2-AddedOnRampEdge -31622#2 -31622#2-AddedOffRampEdge -31622#3 -31622#4-AddedOnRampEdge -31622#4 -31622#4-AddedOffRampEdge -31622#5 -31622#5-AddedOffRampEdge -31622#6 -31622#7-AddedOnRampEdge -31622#7 -31622#7-AddedOffRampEdge -31622#8 -31622#8-AddedOffRampEdge -30482 -31366#1-AddedOnRampEdge -31366#1 -31366#1-AddedOffRampEdge -31366#2 -31366#3-AddedOnRampEdge -31366#3"/>
	</vehicle>
	<vehicle id="3LUtoDE.0" type="passenger2a" depart="2.00" departSpeed="13.89">
		<route edges="-30706#0 -30706#0-AddedOffRampEdge -31268#0 -31268#1 -31268#2 -30668#12-AddedOnRampEdge -30668#12 -30668#12-AddedOffRampEdge -30668#13 -30668#14-AddedOnRampEdge -30668#14 -30668#14-AddedOffRampEdge -30668#15 -30668#16-AddedOnRampEdge -30668#16"/>
	</vehicle>
	<vehicle id="3FRtoDE.0" type="passenger1" depart="5.00" departSpeed="13.89">
		<route edges="-32426#0 -32426#0-AddedOffRampEdge -32426#1 -32426#2-AddedOnRampEdge -32426#2 -32426#2-AddedOffRampEdge -31052 -30692 -31156#1 -30668#9-AddedOnRampEdge -30668#9 -30668#9-AddedOffRampEdge -30668#10 -30668#10-AddedOffRampEdge -30668#11 -30668#12-AddedOnRampEdge -30668#12 -30668#12-AddedOffRampEdge -30668#13 -30668#14-AddedOnRampEdge -30668#14 -30668#14-AddedOffRampEdge -30668#15 -30668#16-AddedOnRampEdge -30668#16"/>
	</vehicle>
	<vehicle id="3DEtoFR.1" type="passenger2a" depart="6.00" departSpeed="13.89">
		<route edges="-31622#0 -31622#0-AddedOffRampEdge -31622#1 -31622#2-AddedOnRampEdge -31622#2 -31622#2-AddedOffRampEdge -31622#3 -31622#4-AddedOnRampEdge -31622#4 -31622#4-AddedOffRampEdge -31622#5 -31622#5-AddedOffRampEdge -31622#6 -31622#7-AddedOnRampEdge -31622#7 -31622#7-AddedOffRampEdge -31622#8 -31622#8-AddedOffRampEdge -30482 -31366#1-AddedOnRampEdge -31366#1 -31366#1-AddedOffRampEdge -31366#2 -31366#3-AddedOnRampEdge -31366#3"/>
	</vehicle>
	<vehicle id="3BEtoDE.1" type="passenger1" depart="7.00" departSpeed="13.89">
		<route edges="-30668#0 -30668#0-AddedOffRampEdge -30668#1 -30668#2-AddedOnRampEdge -30668#2 -30668#2-AddedOffRampEdge -30668#3 -30668#4-AddedOnRampEdge -30668#4 -30668#4-AddedOffRampEdge -30668#5 -30668#6-AddedOnRampEdge -30668#6 -30668#6-AddedOffRampEdge -30668#7 -30668#7-AddedOffRampEdge -30668#8 -30668#9-AddedOnRampEdge -30668#9 -30668#9-AddedOffRampEdge -30668#10 -30668#10-AddedOffRampEdge -30668#11 -30668#12-AddedOnRampEdge -30668#12 -30668#12-AddedOffRampEdge -30668#13 -30668#14-AddedOnRampEdge -30668#14 -30668#14-AddedOffRampEdge -30668#15 -30668#16-AddedOnRampEdge -30668#16"/>
	</vehicle>
	<vehicle id="3DEtoBE.0" type="passenger1" depart="7.00" departSpeed="13.89">
		<route edges="-31622#0 -31622#0-AddedOffRampEdge -31622#1 -31622#2-AddedOnRampEdge -31622#2 -31622#2-AddedOffRampEdge -31622#3 -31622#4-AddedOnRampEdge -31622#4 -31622#4-AddedOffRampEdge -31622#5 -31622#5-AddedOffRampEdge -31622#6 -31622#7-AddedOnRampEdge -31622#7 -31622#7-AddedOffRampEdge -31622#8 -31622#8-AddedOffRampEdge -31622#9 -31622#10-AddedOnRampEdge -31622#10 -31622#10-AddedOffRampEdge -31622#11 -31622#12-AddedOnRampEdge -31622#12 -31622#12-AddedOffRampEdge -31622#13 -31622#14-AddedOnRampEdge -31622#14 -31622#14-AddedOffRampEdge -31622#15 -31622#16-AddedOnRampEdge -31622#16"/>
	</vehicle>
	<vehicle id="3BEtoFR.0" type="passenger2b" depart="9.00" departSpeed="13.89">
		<route edges="-30668#0 -30668#0-AddedOffRampEdge -30668#1 -30668#2-AddedOnRampEdge -30668#2 -30668#2-AddedOffRampEdge -30668#3 -30668#4-AddedOnRampEdge -30668#4 -30668#4-AddedOffRampEdge -30668#5 -30668#6-AddedOnRampEdge -30668#6 -30668#6-AddedOffRampEdge -30440 -31366#0-AddedOnRampEdge -31366#0 -31366#1-AddedOnRampEdge -31366#1 -31366#1-AddedOffRampEdge -31366#2 -31366#3-AddedOnRampEdge -31366#3"/>
	</vehicle>
	<vehicle id="3FRtoDE.1" type="passenger1" depart="11.00" departSpeed="13.89">
		<route edges="-32426#0 -32426#0-AddedOffRampEdge -32426#1 -32426#2-AddedOnRampEdge -32426#2 -32426#2-AddedOffRampEdge -31052 -30692 -31156#1 -30668#9-AddedOnRampEdge -30668#9 -30668#9-AddedOffRampEdge -30668#10 -30668#10-AddedOffRampEdge -30668#11 -30668#12-AddedOnRampEdge -30668#12 -30668#12-AddedOffRampEdge -30668#13 -30668#14-AddedOnRampEdge -30668#14 -30668#14-AddedOffRampEdge -30668#15 -30668#16-AddedOnRampEdge -30668#16"/>
	</vehicle>
	<vehicle id="3LUtoFR.0" type="passenger1" depart="11.00" departSpeed="13.89">
		<route edges="-30706#0 -30706#0-AddedOffRampEdge -31268#0 -31840#0 -31840#1 -31622#7-AddedOnRampEdge -31622#7 -31622#7-AddedOffRampEdge -31622#8 -31622#8-AddedOffRampEdge -30482 -31366#1-AddedOnRampEdge -31366#1 -31366#1-AddedOffRampEdge -31366#2 -31366#3-AddedOnRampEdge -31366#3"/>
	</vehicle>
	<vehicle id="3FRtoLU.0" type="passenger1" depart="15.00" departSpeed="13.89">
		<route edges="-32426#0 -32426#0-AddedOffRampEdge -32426#1 -32426#2-AddedOnRampEdge -32426#2 -32426#2-AddedOffRampEdge -31052 -30692 -31156#1 -30668#9-AddedOnRampEdge -30668#9 -30668#9-AddedOffRampEdge -31432 -32400#5-AddedOnRampEdge -32400#5"/>
	</vehicle>
	<vehicle id="3LUtoFR.1" type="passenger2a" depart="16.00" departSpeed="13.89">
		<route edges="-30706#0 -30706#0-AddedOffRampEdge -31268#0 -31840#0 -31840#1 -31622#7-AddedOnRampEdge -31622#7 -31622#7-AddedOffRampEdge -31622#8 -31622#8-AddedOffRampEdge -30482 -31366#1-AddedOnRampEdge -31366#1 -31366#1-AddedOffRampEdge -31366#2 -31366#3-AddedOnRampEdge -31366#3"/>
	</vehicle>
	<vehicle id="3BEtoDE.2" type="passenger3" depart="19.00" departSpeed="13.89">
		<route edges="-30668#0 -30668#0-AddedOffRampEdge -30668#1 -30668#2-AddedOnRampEdge -30668#2 -30668#2-AddedOffRampEdge -30668#3 -30668#4-AddedOnRampEdge -30668#4 -30668#4-AddedOffRampEdge -30668#5 -30668#6-AddedOnRampEdge -30668#6 -30668#6-AddedOffRampEdge -30668#7 -30668#7-AddedOffRampEdge -30668#8 -30668#9-AddedOnRampEdge -30668#9 -30668#9-AddedOffRampEdge -30668#10 -30668#10-AddedOffRampEdge -30668#11 -30668#12-AddedOnRampEdge -30668#12 -30668#12-AddedOffRampEdge -30668#13 -30668#14-AddedOnRampEdge -30668#14 -30668#14-AddedOffRampEdge -30668#15 -30668#16-AddedOnRampEdge -30668#16"/>
	</vehicle>
	<vehicle id="3DEtoLU.0" type="passenger3" depart="19.00" departSpeed="13.89">
		<route edges="-31622#0 -31622#0-AddedOffRampEdge -31622#1 -31622#2-AddedOnRampEdge -31622#2 -31622#2-AddedOffRampEdge -31622#3 -31622#4-AddedOnRampEdge -31622#4 -31622#4-AddedOffRampEdge -31828 -32400#4-AddedOnRampEdge -32400#4 -32400#5-AddedOnRampEdge -32400#5"/>
	</vehicle>
	<vehicle id="3FRtoBE.0" type="passenger2a" depart="22.00" departSpeed="13.89">
		<route edges="-32426#0 -32426#0-AddedOffRampEdge -32426#1 -32426#2-AddedOnRampEdge -32426#2 -32426#2-AddedOffRampEdge -31052 -32554 -32372#2 -31622#10-AddedOnRampEdge -31622#10 -31622#10-AddedOffRampEdge -31622#11 -31622#12-AddedOnRampEdge -31622#12 -31622#12-AddedOffRampEdge -31622#13 -31622#14-AddedOnRampEdge -31622#14 -31622#14-AddedOffRampEdge -31622#15 -31622#16-AddedOnRampEdge -31622#16"/>
	</vehicle>
	<vehicle id="3FRtoBE.1" type="passenger1" depart="23.00" departSpeed="13.89">
		<route edges="-32426#0 -32426#0-AddedOffRampEdge -32426#1 -32426#2-AddedOnRampEdge -32426#2 -32426#2-AddedOffRampEdge -31052 -32554 -32372#2 -31622#10-AddedOnRampEdge -31622#10 -31622#10-AddedOffRampEdge -31622#11 -31622#12-AddedOnRampEdge -31622#12 -31622#12-AddedOffRampEdge -31622#13 -31622#14-AddedOnRampEdge -31622#14 -31622#14-AddedOffRampEdge -31622#15 -31622#16-AddedOnRampEdge -31622#16"/>
	</vehicle>
	<vehicle id="3BEtoDE.3" type="passenger3" depart="25.00" departSpeed="13.89">
		<route edges="-30668#0 -30668#0-AddedOffRampEdge -30668#1 -30668#2-AddedOnRampEdge -30668#2 -30668#2-AddedOffRampEdge -30668#3 -30668#4-AddedOnRampEdge -30668#4 -30668#4-AddedOffRampEdge -30668#5 -30668#6-AddedOnRampEdge -30668#6 -30668#6-AddedOffRampEdge -30668#7 -30668#7-AddedOffRampEdge -30668#8 -30668#9-AddedOnRampEdge -30668#9 -30668#9-AddedOffRampEdge -30668#10 -30668#10-AddedOffRampEdge -30668#11 -30668#12-AddedOnRampEdge -30668#12 -30668#12-AddedOffRampEdge -30668#13 -30668#14-AddedOnRampEdge -30668#14 -30668#14-AddedOffRampEdge -30668#15 -30668#16-AddedOnRampEdge -30668#16"/>
	</vehicle>
	<vehicle id="3LUtoBE.0" type="passenger1" depart="25.00" departSpeed="13.89">
		<route edges="-30706#0 -30706#0-AddedOffRampEdge -31268#0 -31840#0 -31840#1 -31622#7-AddedOnRampEdge -31622#7 -31622#7-AddedOffRampEdge -31622#8 -31622#8-AddedOffRampEdge -31622#9 -31622#10-AddedOnRampEdge -31622#10 -31622#10-AddedOffRampEdge -31622#11 -31622#12-AddedOnRampEdge -31622#12 -31622#12-AddedOffRampEdge -31622#13 -31622#14-AddedOnRampEdge -31622#14 -31622#14-AddedOffRampEdge -31622#15 -31622#16-AddedOnRampEdge -31622#16"/>
	</vehicle>
	<vehicle id="3BEtoDE.4" type="passenger5" depart="26.00" departSpeed="13.89">
		<route edges="-30668#0 -30668#0-AddedOffRampEdge -30668#1 -30668#2-AddedOnRampEdge -30668#2 -30668#2-AddedOffRampEdge -30668#3 -30668#4-AddedOnRampEdge -30668#4 -30668#4-AddedOffRampEdge -30668#5 -30668#6-AddedOnRampEdge -30668#6 -30668#6-AddedOffRampEdge -30668#7 -30668#7-AddedOffRampEdge -30668#8 -30668#9-AddedOnRampEdge -30668#9 -30668#9-AddedOffRampEdge -30668#10 -30668#10-AddedOffRampEdge -30668#11 -30668#12-AddedOnRampEdge -30668#12 -30668#12-AddedOffRampEdge -30668#13 -30668#14-AddedOnRampEdge -30668#14 -30668#14-AddedOffRampEdge -30668#15 -30668#16-AddedOnRampEdge -30668#16"/>
	</vehicle>
	<vehicle id="3BEtoFR.1" type="passenger2b" depart="30.00" departSpeed="13.89">
		<route edges="-30668#0 -30668#0-AddedOffRampEdge -30668#1 -30668#2-AddedOnRampEdge -30668#2 -30668#2-AddedOffRampEdge -30668#3 -30668#4-AddedOnRampEdge -30668#4 -30668#4-AddedOffRampEdge -30668#5 -30668#6-AddedOnRampEdge -30668#6 -30668#6-AddedOffRampEdge -30440 -31366#0-AddedOnRampEdge -31366#0 -31366#1-AddedOnRampEdge -31366#1 -31366#1-AddedOffRampEdge -31366#2 -31366#3-AddedOnRampEdge -31366#3"/>
	</vehicle>
	<vehicle id="3BEtoLU.0" type="passenger5" depart="34.00" departSpeed="13.89">
		<route edges="-30668#0 -30668#0-AddedOffRampEdge -30668#1 -30668#2-AddedOnRampEdge -30668#2 -30668#2-AddedOffRampEdge -30668#3 -30668#4-AddedOnRampEdge -30668#4 -30668#4-AddedOffRampEdge -30668#5 -30668#6-AddedOnRampEdge -30668#6 -30668#6-AddedOffRampEdge -30668#7 -30668#7-AddedOffRampEdge -30668#8 -30668#9-AddedOnRampEdge -30668#9 -30668#9-AddedOffRampEdge -31432 -32400#5-AddedOnRampEdge -32400#5"/>
	</vehicle>
	<vehicle id="3BEtoFR.2" type="passenger1" depart="36.00" departSpeed="13.89">
		<route edges="-30668#0 -30668#0-AddedOffRampEdge -30668#1 -30668#2-AddedOnRampEdge -30668#2 -30668#2-AddedOffRampEdge -30668#3 -30668#4-AddedOnRampEdge -30668#4 -30668#4-AddedOffRampEdge -30668#5 -30668#6-AddedOnRampEdge -30668#6 -30668#6-AddedOffRampEdge -30440 -31366#0-AddedOnRampEdge -31366#0 -31366#1-AddedOnRampEdge -31366#1 -31366#1-AddedOffRampEdge -31366#2 -31366#3-AddedOnRampEdge -31366#3"/>
	</vehicle>
	<vehicle id="3DEtoBE.1" type="passenger1" depart="38.00" departSpeed="13.89">
		<route edges="-31622#0 -31622#0-AddedOffRampEdge -31622#1 -31622#2-AddedOnRampEdge -31622#2 -31622#2-AddedOffRampEdge -31622#3 -31622#4-AddedOnRampEdge -31622#4 -31622#4-AddedOffRampEdge -31622#5 -31622#5-AddedOffRampEdge -31622#6 -31622#7-AddedOnRampEdge -31622#7 -31622#7-AddedOffRampEdge -31622#8 -31622#8-AddedOffRampEdge -31622#9 -31622#10-AddedOnRampEdge -31622#10 -31622#10-AddedOffRampEdge -31622#11 -31622#12-AddedOnRampEdge -31622#12 -31622#12-AddedOffRampEdge -31622#13 -31622#14-AddedOnRampEdge -31622#14 -31622#14-AddedOffRampEdge -31622#15 -31622#16-AddedOnRampEdge -31622#16"/>
	</vehicle>
	<vehicle id="3LUtoDE.1" type="passenger1" depart="39.00" departSpeed="13.89">
		<route edges="-30706#0 -30706#0-AddedOffRampEdge -31268#0 -31268#1 -31268#2 -30668#12-AddedOnRampEdge -30668#12 -30668#12-AddedOffRampEdge -30668#13 -30668#14-AddedOnRampEdge -30668#14 -30668#14-AddedOffRampEdge -30668#15 -30668#16-AddedOnRampEdge -30668#16"/>
	</vehicle>
	<vehicle id="3DEtoFR.2" type="passenger1" depart="41.00" departSpeed="13.89">
		<route edges="-31622#0 -31622#0-AddedOffRampEdge -31622#1 -31622#2-AddedOnRampEdge -31622#2 -31622#2-AddedOffRampEdge -31622#3 -31622#4-AddedOnRampEdge -31622#4 -31622#4-AddedOffRampEdge -31622#5 -31622#5-AddedOffRampEdge -31622#6 -31622#7-AddedOnRampEdge -31622#7 -31622#7-AddedOffRampEdge -31622#8 -31622#8-AddedOffRampEdge -30482 -31366#1-AddedOnRampEdge -31366#1 -31366#1-AddedOffRampEdge -31366#2 -31366#3-AddedOnRampEdge -31366#3"/>
	</vehicle>
	<vehicle id="3BEtoFR.3" type="passenger1" depart="44.00" departSpeed="13.89">
		<route edges="-30668#0 -30668#0-AddedOffRampEdge -30668#1 -30668#2-AddedOnRampEdge -30668#2 -30668#2-AddedOffRampEdge -30668#3 -30668#4-AddedOnRampEdge -30668#4 -30668#4-AddedOffRampEdge -30668#5 -30668#6-AddedOnRampEdge -30668#6 -30668#6-AddedOffRampEdge -30440 -31366#0-AddedOnRampEdge -31366#0 -31366#1-AddedOnRampEdge -31366#1 -31366#1-AddedOffRampEdge -31366#2 -31366#3-AddedOnRampEdge -31366#3"/>
	</vehicle>
	<vehicle id="3LUtoFR.2" type="passenger1" depart="47.00" departSpeed="13.89">
		<route edges="-30706#0 -30706#0-AddedOffRampEdge -31268#0 -31840#0 -31840#1 -31622#7-AddedOnRampEdge -31622#7 -31622#7-AddedOffRampEdge -31622#8 -31622#8-AddedOffRampEdge -30482 -31366#1-AddedOnRampEdge -31366#1 -31366#1-AddedOffRampEdge -31366#2 -31366#3-AddedOnRampEdge -31366#3"/>
	</vehicle>
	<vehicle id="3FRtoDE.2" type="passenger2b" depart="49.00" departSpeed="13.89">
		<route edges="-32426#0 -32426#0-AddedOffRampEdge -32426#1 -32426#2-AddedOnRampEdge -32426#2 -32426#2-AddedOffRampEdge -31052 -30692 -31156#1 -30668#9-AddedOnRampEdge -30668#9 -30668#9-AddedOffRampEdge -30668#10 -30668#10-AddedOffRampEdge -30668#11 -30668#12-AddedOnRampEdge -30668#12 -30668#12-AddedOffRampEdge -30668#13 -30668#14-AddedOnRampEdge -30668#14 -30668#14-AddedOffRampEdge -30668#15 -30668#16-AddedOnRampEdge -30668#16"/>
	</vehicle>
	<vehicle id="3FRtoLU.1" type="passenger1" depart="51.00" departSpeed="13.89">
		<route edges="-32426#0 -32426#0-AddedOffRampEdge -32426#1 -32426#2-AddedOnRampEdge -32426#2 -32426#2-AddedOffRampEdge -31052 -30692 -31156#1 -30668#9-AddedOnRampEdge -30668#9 -30668#9-AddedOffRampEdge -31432 -32400#5-AddedOnRampEdge -32400#5"/>
	</vehicle>
	<vehicle id="3LUtoFR.3" type="passenger1" depart="56.00" departSpeed="13.89">
		<route edges="-30706#0 -30706#0-AddedOffRampEdge -31268#0 -31840#0 -31840#1 -31622#7-AddedOnRampEdge -31622#7 -31622#7-AddedOffRampEdge -31622#8 -31622#8-AddedOffRampEdge -30482 -31366#1-AddedOnRampEdge -31366#1 -31366#1-AddedOffRampEdge -31366#2 -31366#3-AddedOnRampEdge -31366#3"/>
	</vehicle>
	<vehicle id="3FRtoBE.2" type="passenger1" depart="58.00" departSpeed="13.89">
		<route edges="-32426#0 -32426#0-AddedOffRampEdge -32426#1 -32426#2-AddedOnRampEdge -32426#2 -32426#2-AddedOffRampEdge -31052 -32554 -32372#2 -31622#10-AddedOnRampEdge -31622#10 -31622#10-AddedOffRampEdge -31622#11 -31622#12-AddedOnRampEdge -31622#12 -31622#12-AddedOffRampEdge -31622#13 -31622#14-AddedOnRampEdge -31622#14 -31622#14-AddedOffRampEdge -31622#15 -31622#16-AddedOnRampEdge -31622#16"/>
	</vehicle>
	<vehicle id="3BEtoDE.5" type="passenger2b" depart="59.00" departSpeed="13.89">
		<route edges="-30668#0 -30668#0-AddedOffRampEdge -30668#1 -30668#2-AddedOnRampEdge -30668#2 -30668#2-AddedOffRampEdge -30668#3 -30668#4-AddedOnRampEdge -30668#4 -30668#4-AddedOffRampEdge -30668#5 -30668#6-AddedOnRampEdge -30668#6 -30668#6-AddedOffRampEdge -30668#7 -30668#7-AddedOffRampEdge -30668#8 -30668#9-AddedOnRampEdge -30668#9 -30668#9-AddedOffRampEdge -30668#10 -30668#10-AddedOffRampEdge -30668#11 -30668#12-AddedOnRampEdge -30668#12 -30668#12-AddedOffRampEdge -30668#13 -30668#14-AddedOnRampEdge -30668#14 -30668#14-AddedOffRampEdge -30668#15 -30668#16-AddedOnRampEdge -30668#16"/>
	</vehicle>
	<vehicle id="3FRtoLU.2" type="passenger1" depart="62.00" departSpeed="13.89">
		<route edges="-32426#0 -32426#0-AddedOffRampEdge -32426#1 -32426#2-AddedOnRampEdge -32426#2 -32426#2-AddedOffRampEdge -31052 -30692 -31156#1 -30668#9-AddedOnRampEdge -30668#9 -30668#9-AddedOffRampEdge -31432 -32400#5-AddedOnRampEdge -32400#5"/>
	</vehicle>
	<vehicle id="3DEtoBE.2" type="passenger1" depart="64.00" departSpeed="13.89">
		<route edges="-31622#0 -31622#0-AddedOffRampEdge -31622#1 -31622#2-AddedOnRampEdge -31622#2 -31622#2-AddedOffRampEdge -31622#3 -31622#4-AddedOnRampEdge -31622#4 -31622#4-AddedOffRampEdge -31622#5 -31622#5-AddedOffRampEdge -31622#6 -31622#7-AddedOnRampEdge -31622#7 -31622#7-AddedOffRampEdge -31622#8 -31622#8-AddedOffRampEdge -31622#9 -31622#10-AddedOnRampEdge -31622#10 -31622#10-AddedOffRampEdge -31622#11 -31622#12-AddedOnRampEdge -31622#12 -31622#12-AddedOffRampEdge -31622#13 -31622#14-AddedOnRampEdge -31622#14 -31622#14-AddedOffRampEdge -31622#15 -31622#16-AddedOnRampEdge -31622#16"/>
	</vehicle>
	<vehicle id="3BEtoDE.6" type="passenger5" depart="65.00" departSpeed="13.89">
		<route edges="-30668#0 -30668#0-AddedOffRampEdge -30668#1 -30668#2-AddedOnRampEdge -30668#2 -30668#2-AddedOffRampEdge -30668#3 -30668#4-AddedOnRampEdge -30668#4 -30668#4-AddedOffRampEdge -30668#5 -30668#6-AddedOnRampEdge -30668#6 -30668#6-AddedOffRampEdge -30668#7 -30668#7-AddedOffRampEdge -30668#8 -30668#9-AddedOnRampEdge -30668#9 -30668#9-AddedOffRampEdge -30668#10 -30668#10-AddedOffRampEdge -30668#11 -30668#12-AddedOnRampEdge -30668#12 -30668#12-AddedOffRampEdge -30668#13 -30668#14-AddedOnRampEdge -30668#14 -30668#14-AddedOffRampEdge -30668#15 -30668#16-AddedOnRampEdge -30668#16"/>
	</vehicle>
	<vehicle id="3FRtoLU.3" type="passenger1" depart="68.00" departSpeed="13.89">
		<route edges="-32426#0 -32426#0-AddedOffRampEdge -32426#1 -32426#2-AddedOnRampEdge -32426#2 -32426#2-AddedOffRampEdge -31052 -30692 -31156#1 -30668#9-AddedOnRampEdge -30668#9 -30668#9-AddedOffRampEdge -31432 -32400#5-AddedOnRampEdge -32400#5"/>
	</vehicle>
	<vehicle id="3DEtoLU.1" type="passenger3" depart="72.00" departSpeed="13.89">
		<route edges="-31622#0 -31622#0-AddedOffRampEdge -31622#1 -31622#2-AddedOnRampEdge -31622#2 -31622#2-AddedOffRampEdge -31622#3 -31622#4-AddedOnRampEdge -31622#4 -31622#4-AddedOffRampEdge -31828 -32400#4-AddedOnRampEdge -32400#4 -32400#5-AddedOnRampEdge -32400#5"/>
	</vehicle>
	<vehicle id="3BEtoLU.1" type="passenger2a" depart="73.00" departSpeed="13.89">
		<route edges="-30668#0 -30668#0-AddedOffRampEdge -30668#1 -30668#2-AddedOnRampEdge -30668#2 -30668#2-AddedOffRampEdge -30668#3 -30668#4-AddedOnRampEdge -30668#4 -30668#4-AddedOffRampEdge -30668#5 -30668#6-AddedOnRampEdge -30668#6 -30668#6-AddedOffRampEdge -30668#7 -30668#7-AddedOffRampEdge -30668#8 -30668#9-AddedOnRampEdge -30668#9 -30668#9-AddedOffRampEdge -31432 -32400#5-AddedOnRampEdge -32400#5"/>
	</vehicle>
	<vehicle id="3DEtoFR.3" type="passenger1" depart="75.00" departSpeed="13.89">
		<route edges="-31622#0 -31622#0-AddedOffRampEdge -31622#1 -31622#2-AddedOnRampEdge -31622#2 -31622#2-AddedOffRampEdge -31622#3 -31622#4-AddedOnRampEdge -31622#4 -31622#4-AddedOffRampEdge -31622#5 -31622#5-AddedOffRampEdge -31622#6 -31622#7-AddedOnRampEdge -31622#7 -31622#7-AddedOffRampEdge -31622#8 -31622#8-AddedOffRampEdge -30482 -31366#1-AddedOnRampEdge -31366#1 -31366#1-AddedOffRampEdge -31366#2 -31366#3-AddedOnRampEdge -31366#3"/>
	</vehicle>
	<vehicle id="3DEtoLU.2" type="passenger5" depart="76.00" departSpeed="13.89">
		<route edges="-31622#0 -31622#0-AddedOffRampEdge -31622#1 -31622#2-AddedOnRampEdge -31622#2 -31622#2-AddedOffRampEdge -31622#3 -31622#4-AddedOnRampEdge -31622#4 -31622#4-AddedOffRampEdge -31828 -32400#4-AddedOnRampEdge -32400#4 -32400#5-AddedOnRampEdge -32400#5"/>
	</vehicle>
	<vehicle id="3DEtoBE.3" type="passenger1" depart="80.00" departSpeed="13.89">
		<route edges="-31622#0 -31622#0-AddedOffRampEdge -31622#1 -31622#2-AddedOnRampEdge -31622#2 -31622#2-AddedOffRampEdge -31622#3 -31622#4-AddedOnRampEdge -31622#4 -31622#4-AddedOffRampEdge -31622#5 -31622#5-AddedOffRampEdge -31622#6 -31622#7-AddedOnRampEdge -31622#7 -31622#7-AddedOffRampEdge -31622#8 -31622#8-AddedOffRampEdge -31622#9 -31622#10-AddedOnRampEdge -31622#10 -31622#10-AddedOffRampEdge -31622#11 -31622#12-AddedOnRampEdge -31622#12 -31622#12-AddedOffRampEdge -31622#13 -31622#14-AddedOnRampEdge -31622#14 -31622#14-AddedOffRampEdge -31622#15 -31622#16-AddedOnRampEdge -31622#16"/>
	</vehicle>
	<vehicle id="3LUtoDE.2" type="passenger3" depart="86.00" departSpeed="13.89">
		<route edges="-30706#0 -30706#0-AddedOffRampEdge -31268#0 -31268#1 -31268#2 -30668#12-AddedOnRampEdge -30668#12 -30668#12-AddedOffRampEdge -30668#13 -30668#14-AddedOnRampEdge -30668#14 -30668#14-AddedOffRampEdge -30668#15 -30668#16-AddedOnRampEdge -30668#16"/>
	</vehicle>
	<vehicle id="3BEtoLU.2" type="passenger4" depart="87.00" departSpeed="13.89">
		<route edges="-30668#0 -30668#0-AddedOffRampEdge -30668#1 -30668#2-AddedOnRampEdge -30668#2 -30668#2-AddedOffRampEdge -30668#3 -30668#4-AddedOnRampEdge -30668#4 -30668#4-AddedOffRampEdge -30668#5 -30668#6-AddedOnRampEdge -30668#6 -30668#6-AddedOffRampEdge -30668#7 -30668#7-AddedOffRampEdge -30668#8 -30668#9-AddedOnRampEdge -30668#9 -30668#9-AddedOffRampEdge -31432 -32400#5-AddedOnRampEdge -32400#5"/>
	</vehicle>
	<vehicle id="3LUtoDE.3" type="passenger4" depart="90.00" departSpeed="13.89">
		<route edges="-30706#0 -30706#0-AddedOffRampEdge -31268#0 -31268#1 -31268#2 -30668#12-AddedOnRampEdge -30668#12 -30668#12-AddedOffRampEdge -30668#13 -30668#14-AddedOnRampEdge -30668#14 -30668#14-AddedOffRampEdge -30668#15 -30668#16-AddedOnRampEdge -30668#16"/>
	</vehicle>
	<vehicle id="3BEtoDE.7" type="passenger2a" depart="91.00" departSpeed="13.89">
		<route edges="-30668#0 -30668#0-AddedOffRampEdge -30668#1 -30668#2-AddedOnRampEdge -30668#2 -30668#2-AddedOffRampEdge -30668#3 -30668#4-AddedOnRampEdge -30668#4 -30668#4-AddedOffRampEdge -30668#5 -30668#6-AddedOnRampEdge -30668#6 -30668#6-AddedOffRampEdge -30668#7 -30668#7-AddedOffRampEdge -30668#8 -30668#9-AddedOnRampEdge -30668#9 -30668#9-AddedOffRampEdge -30668#10 -30668#10-AddedOffRampEdge -30668#11 -30668#12-AddedOnRampEdge -30668#12 -30668#12-AddedOffRampEdge -30668#13 -30668#14-AddedOnRampEdge -30668#14 -30668#14-AddedOffRampEdge -30668#15 -30668#16-AddedOnRampEdge -30668#16"/>
	</vehicle>
	<vehicle id="3FRtoBE.3" type="passenger4" depart="93.00" departSpeed="13.89">
		<route edges="-32426#0 -32426#0-AddedOffRampEdge -32426#1 -32426#2-AddedOnRampEdge -32426#2 -32426#2-AddedOffRampEdge -31052 -32554 -32372#2 -31622#10-AddedOnRampEdge -31622#10 -31622#10-AddedOffRampEdge -31622#11 -31622#12-AddedOnRampEdge -31622#12 -31622#12-AddedOffRampEdge -31622#13 -31622#14-AddedOnRampEdge -31622#14 -31622#14-AddedOffRampEdge -31622#15 -31622#16-AddedOnRampEdge -31622#16"/>
	</vehicle>
	<vehicle id="3DEtoBE.4" type="passenger2a" depart="96.00" departSpeed="13.89">
		<route edges="-31622#0 -31622#0-AddedOffRampEdge -31622#1 -31622#2-AddedOnRampEdge -31622#2 -31622#2-AddedOffRampEdge -31622#3 -31622#4-AddedOnRampEdge -31622#4 -31622#4-AddedOffRampEdge -31622#5 -31622#5-AddedOffRampEdge -31622#6 -31622#7-AddedOnRampEdge -31622#7 -31622#7-AddedOffRampEdge -31622#8 -31622#8-AddedOffRampEdge -31622#9 -31622#10-AddedOnRampEdge -31622#10 -31622#10-AddedOffRampEdge -31622#11 -31622#12-AddedOnRampEdge -31622#12 -31622#12-AddedOffRampEdge -31622#13 -31622#14-AddedOnRampEdge -31622#14 -31622#14-AddedOffRampEdge -31622#15 -31622#16-AddedOnRampEdge -31622#16"/>
	</vehicle>
	<vehicle id="3FRtoBE.4" type="passenger1" depart="100.00" departSpeed="13.89">
		<route edges="-32426#0 -32426#0-AddedOffRampEdge -32426#1 -32426#2-AddedOnRampEdge -32426#2 -32426#2-AddedOffRampEdge -31052 -32554 -32372#2 -31622#10-AddedOnRampEdge -31622#10 -31622#10-AddedOffRampEdge -31622#11 -31622#12-AddedOnRampEdge -31622#12 -31622#12-AddedOffRampEdge -31622#13 -31622#14-AddedOnRampEdge -31622#14 -31622#14-AddedOffRampEdge -31622#15 -31622#16-AddedOnRampEdge -31622#16"/>
	</vehicle>
	<vehicle id="3BEtoFR.4" type="passenger2a" depart="102.00" departSpeed="13.89">
		<route edges="-30668#0 -30668#0-AddedOffRampEdge -30668#1 -30668#2-AddedOnRampEdge -30668#2 -30668#2-AddedOffRampEdge -30668#3 -30668#4-AddedOnRampEdge -30668#4 -30668#4-AddedOffRampEdge -30668#5 -30668#6-AddedOnRampEdge -30668#6 -30668#6-AddedOffRampEdge -30440 -31366#0-AddedOnRampEdge -31366#0 -31366#1-AddedOnRampEdge -31366#1 -31366#1-AddedOffRampEdge -31366#2 -31366#3-AddedOnRampEdge -31366#3"/>
	</vehicle>
	<vehicle id="3BEtoFR.5" type="passenger2b" depart="108.00" departSpeed="13.89">
		<route edges="-30668#0 -30668#0-AddedOffRampEdge -30668#1 -30668#2-AddedOnRampEdge -30668#2 -30668#2-AddedOffRampEdge -30668#3 -30668#4-AddedOnRampEdge -30668#4 -30668#4-AddedOffRampEdge -30668#5 -30668#6-AddedOnRampEdge -30668#6 -30668#6-AddedOffRampEdge -30440 -31366#0-AddedOnRampEdge -31366#0 -31366#1-AddedOnRampEdge -31366#1 -31366#1-AddedOffRampEdge -31366#2 -31366#3-AddedOnRampEdge -31366#3"/>
	</vehicle>
	<vehicle id="3BEtoLU.3" type="passenger1" depart="110.00" departSpeed="13.89">
		<route edges="-30668#0 -30668#0-AddedOffRampEdge -30668#1 -30668#2-AddedOnRampEdge -30668#2 -30668#2-AddedOffRampEdge -30668#3 -30668#4-AddedOnRampEdge -30668#4 -30668#4-AddedOffRampEdge -30668#5 -30668#6-AddedOnRampEdge -30668#6 -30668#6-AddedOffRampEdge -30668#7 -30668#7-AddedOffRampEdge -30668#8 -30668#9-AddedOnRampEdge -30668#9 -30668#9-AddedOffRampEdge -31432 -32400#5-AddedOnRampEdge -32400#5"/>
	</vehicle>
	<vehicle id="3DEtoLU.3" type="passenger1" depart="113.00" departSpeed="13.89">
		<route edges="-31622#0 -31622#0-AddedOffRampEdge -31622#1 -31622#2-AddedOnRampEdge -31622#2 -31622#2-AddedOffRampEdge -31622#3 -31622#4-AddedOnRampEdge -31622#4 -31622#4-AddedOffRampEdge -31828 -32400#4-AddedOnRampEdge -32400#4 -32400#5-AddedOnRampEdge -32400#5"/>
	</vehicle>
	<vehicle id="3BEtoLU.4" type="passenger2a" depart="114.00" departSpeed="13.89">
		<route edges="-30668#0 -30668#0-AddedOffRampEdge -30668#1 -30668#2-AddedOnRampEdge -30668#2 -30668#2-AddedOffRampEdge -30668#3 -30668#4-AddedOnRampEdge -30668#4 -30668#4-AddedOffRampEdge -30668#5 -30668#6-AddedOnRampEdge -30668#6 -30668#6-AddedOffRampEdge -30668#7 -30668#7-AddedOffRampEdge -30668#8 -30668#9-AddedOnRampEdge -30668#9 -30668#9-AddedOffRampEdge -31432 -32400#5-AddedOnRampEdge -32400#5"/>
	</vehicle>
	<vehicle id="3FRtoBE.5" type="passenger1" depart="115.00" departSpeed="13.89">
		<route edges="-32426#0 -32426#0-AddedOffRampEdge -32426#1 -32426#2-AddedOnRampEdge -32426#2 -32426#2-AddedOffRampEdge -31052 -32554 -32372#2 -31622#10-AddedOnRampEdge -31622#10 -31622#10-AddedOffRampEdge -31622#11 -31622#12-AddedOnRampEdge -31622#12 -31622#12-AddedOffRampEdge -31622#13 -31622#14-AddedOnRampEdge -31622#14 -31622#14-AddedOffRampEdge -31622#15 -31622#16-AddedOnRampEdge -31622#16"/>
	</vehicle>
	<vehicle id="3DEtoFR.4" type="passenger4" depart="116.00" departSpeed="13.89">
		<route edges="-31622#0 -31622#0-AddedOffRampEdge -31622#1 -31622#2-AddedOnRampEdge -31622#2 -31622#2-AddedOffRampEdge -31622#3 -31622#4-AddedOnRampEdge -31622#4 -31622#4-AddedOffRampEdge -31622#5 -31622#5-AddedOffRampEdge -31622#6 -31622#7-AddedOnRampEdge -31622#7 -31622#7-AddedOffRampEdge -31622#8 -31622#8-AddedOffRampEdge -30482 -31366#1-AddedOnRampEdge -31366#1 -31366#1-AddedOffRampEdge -31366#2 -31366#3-AddedOnRampEdge -31366#3"/>
	</vehicle>
	<vehicle id="3BEtoFR.6" type="passenger4" depart="121.00" departSpeed="13.89">
		<route edges="-30668#0 -30668#0-AddedOffRampEdge -30668#1 -30668#2-AddedOnRampEdge -30668#2 -30668#2-AddedOffRampEdge -30668#3 -30668#4-AddedOnRampEdge -30668#4 -30668#4-AddedOffRampEdge -30668#5 -30668#6-AddedOnRampEdge -30668#6 -30668#6-AddedOffRampEdge -30440 -31366#0-AddedOnRampEdge -31366#0 -31366#1-AddedOnRampEdge -31366#1 -31366#1-AddedOffRampEdge -31366#2 -31366#3-AddedOnRampEdge -31366#3"/>
	</vehicle>
	<vehicle id="3LUtoBE.1" type="passenger1" depart="122.00" departSpeed="13.89">
		<route edges="-30706#0 -30706#0-AddedOffRampEdge -31268#0 -31840#0 -31840#1 -31622#7-AddedOnRampEdge -31622#7 -31622#7-AddedOffRampEdge -31622#8 -31622#8-AddedOffRampEdge -31622#9 -31622#10-AddedOnRampEdge -31622#10 -31622#10-AddedOffRampEdge -31622#11 -31622#12-AddedOnRampEdge -31622#12 -31622#12-AddedOffRampEdge -31622#13 -31622#14-AddedOnRampEdge -31622#14 -31622#14-AddedOffRampEdge -31622#15 -31622#16-AddedOnRampEdge -31622#16"/>
	</vehicle>
	<vehicle id="3BEtoFR.7" type="passenger1" depart="124.00" departSpeed="13.89">
		<route edges="-30668#0 -30668#0-AddedOffRampEdge -30668#1 -30668#2-AddedOnRampEdge -30668#2 -30668#2-AddedOffRampEdge -30668#3 -30668#4-AddedOnRampEdge -30668#4 -30668#4-AddedOffRampEdge -30668#5 -30668#6-AddedOnRampEdge -30668#6 -30668#6-AddedOffRampEdge -30440 -31366#0-AddedOnRampEdge -31366#0 -31366#1-AddedOnRampEdge -31366#1 -31366#1-AddedOffRampEdge -31366#2 -31366#3-AddedOnRampEdge -31366#3"/>
	</vehicle>
	<vehicle id="3FRtoBE.6" type="passenger2b" depart="125.00" departSpeed="13.89">
		<route edges="-32426#0 -32426#0-AddedOffRampEdge -32426#1 -32426#2-AddedOnRampEdge -32426#2 -32426#2-AddedOffRampEdge -31052 -32554 -32372#2 -31622#10-AddedOnRampEdge -31622#10 -31622#10-AddedOffRampEdge -31622#11 -31622#12-AddedOnRampEdge -31622#12 -31622#12-AddedOffRampEdge -31622#13 -31622#14-AddedOnRampEdge -31622#14 -31622#14-AddedOffRampEdge -31622#15 -31622#16-AddedOnRampEdge -31622#16"/>